/*--------------------------------*- C++ -*----------------------------------*\
| =========                 |                                                 |
| \      /  F ield         | OpenFOAM: The Open Source CFD Toolbox           |
|  \    /   O peration     | Version:  5                                     |
|   \  /    A nd           | Web:      www.OpenFOAM.org                      |
|    \/     M anipulation  |                                                 |
\*---------------------------------------------------------------------------*/
FoamFile
{
	version     2.0;
	format      ascii;
	class       dictionary;
	object      blockMeshDict;
}

// * * * * * * * * * * * * * * * * * * * * * * * * * * * * * * * * * * * * * //

convertToMeters 1.0;

// * * * * * * * * * * * * * * * * * * * * * * * * * * * * * * * * * * * * * //


// * * * * * * * * * * * * * * * * * * * * * * * * * * * * * * * * * * * * * //
vertices
(

//section 0

//center
(0.0 0.0 0.0) // 0

//polygon
( 0.035 0.0 0.0 ) // 1
( 0.030310889132455356 0.017499999999999998 0.0 ) // 2
( 0.017500000000000005 0.030310889132455353 0.0 ) // 3
( 2.1431318985078684e-18 0.035 0.0 ) // 4
( -0.017499999999999995 0.030310889132455356 0.0 ) // 5
( -0.03031088913245535 0.017500000000000012 0.0 ) // 6
( -0.035 4.286263797015737e-18 0.0 ) // 7
( -0.030310889132455363 -0.01749999999999999 0.0 ) // 8
( -0.017500000000000016 -0.030310889132455346 0.0 ) // 9
( -6.429395695523605e-18 -0.035 0.0 ) // 10
( 0.017499999999999977 -0.03031088913245537 0.0 ) // 11
( 0.030310889132455346 -0.017500000000000016 0.0 ) // 12

//circles

//circle 0
( 0.07 0.0 0.0 ) //13
( 0.06062177826491071 0.034999999999999996 0.0 ) //14
( 0.03500000000000001 0.060621778264910706 0.0 ) //15
( 4.286263797015737e-18 0.07 0.0 ) //16
( -0.03499999999999999 0.06062177826491071 0.0 ) //17
( -0.0606217782649107 0.035000000000000024 0.0 ) //18
( -0.07 8.572527594031473e-18 0.0 ) //19
( -0.060621778264910726 -0.03499999999999998 0.0 ) //20
( -0.03500000000000003 -0.06062177826491069 0.0 ) //21
( -1.285879139104721e-17 -0.07 0.0 ) //22
( 0.034999999999999955 -0.06062177826491074 0.0 ) //23
( 0.06062177826491069 -0.03500000000000003 0.0 ) //24

//circle 1
( 0.12250000000000001 0.0 0.0 ) //25
( 0.10608811196359375 0.06125 0.0 ) //26
( 0.06125000000000002 0.10608811196359373 0.0 ) //27
( 7.500961644777539e-18 0.12250000000000001 0.0 ) //28
( -0.06124999999999998 0.10608811196359375 0.0 ) //29
( -0.10608811196359373 0.06125000000000005 0.0 ) //30
( -0.12250000000000001 1.5001923289555077e-17 0.0 ) //31
( -0.10608811196359376 -0.06124999999999997 0.0 ) //32
( -0.06125000000000006 -0.10608811196359372 0.0 ) //33
( -2.2502884934332615e-17 -0.12250000000000001 0.0 ) //34
( 0.06124999999999992 -0.10608811196359379 0.0 ) //35
( 0.10608811196359372 -0.06125000000000006 0.0 ) //36

//circle 2
( 0.17500000000000002 0.0 0.0 ) //37
( 0.1515544456622768 0.0875 0.0 ) //38
( 0.08750000000000002 0.15155444566227677 0.0 ) //39
( 1.0715659492539341e-17 0.17500000000000002 0.0 ) //40
( -0.08749999999999997 0.1515544456622768 0.0 ) //41
( -0.15155444566227674 0.08750000000000006 0.0 ) //42
( -0.17500000000000002 2.1431318985078683e-17 0.0 ) //43
( -0.1515544456622768 -0.08749999999999995 0.0 ) //44
( -0.08750000000000009 -0.15155444566227674 0.0 ) //45
( -3.2146978477618024e-17 -0.17500000000000002 0.0 ) //46
( 0.0874999999999999 -0.15155444566227685 0.0 ) //47
( 0.15155444566227674 -0.08750000000000009 0.0 ) //48

//circle 3
( 0.29750000000000004 0.0 0.0 ) //49
( 0.25764255762587057 0.14875 0.0 ) //50
( 0.14875000000000005 0.2576425576258705 0.0 ) //51
( 1.8216621137316882e-17 0.29750000000000004 0.0 ) //52
( -0.14874999999999997 0.25764255762587057 0.0 ) //53
( -0.25764255762587046 0.14875000000000013 0.0 ) //54
( -0.29750000000000004 3.6433242274633764e-17 0.0 ) //55
( -0.25764255762587057 -0.14874999999999994 0.0 ) //56
( -0.14875000000000016 -0.25764255762587046 0.0 ) //57
( -5.464986341195064e-17 -0.29750000000000004 0.0 ) //58
( 0.14874999999999983 -0.2576425576258706 0.0 ) //59
( 0.25764255762587046 -0.14875000000000016 0.0 ) //60

//circle 4
( 0.42000000000000004 0.0 0.0 ) //61
( 0.3637306695894643 0.21 0.0 ) //62
( 0.21000000000000008 0.36373066958946426 0.0 ) //63
( 2.571758278209442e-17 0.42000000000000004 0.0 ) //64
( -0.20999999999999994 0.3637306695894643 0.0 ) //65
( -0.3637306695894642 0.21000000000000016 0.0 ) //66
( -0.42000000000000004 5.143516556418884e-17 0.0 ) //67
( -0.3637306695894643 -0.2099999999999999 0.0 ) //68
( -0.21000000000000021 -0.36373066958946415 0.0 ) //69
( -7.715274834628325e-17 -0.42000000000000004 0.0 ) //70
( 0.20999999999999974 -0.36373066958946443 0.0 ) //71
( 0.36373066958946415 -0.21000000000000021 0.0 ) //72

//circle 5
( 0.525 0.0 0.0 ) //73
( 0.4546633369868303 0.26249999999999996 0.0 ) //74
( 0.26250000000000007 0.45466333698683026 0.0 ) //75
( 3.2146978477618024e-17 0.525 0.0 ) //76
( -0.2624999999999999 0.4546633369868303 0.0 ) //77
( -0.4546633369868302 0.2625000000000002 0.0 ) //78
( -0.525 6.429395695523605e-17 0.0 ) //79
( -0.4546633369868304 -0.26249999999999984 0.0 ) //80
( -0.26250000000000023 -0.45466333698683015 0.0 ) //81
( -9.644093543285407e-17 -0.525 0.0 ) //82
( 0.2624999999999997 -0.45466333698683054 0.0 ) //83
( 0.45466333698683015 -0.26250000000000023 0.0 ) //84

//section 1

//center
(0.0 0.0 0.19424999999999998) // 85

//polygon
( 0.035 0.0 0.19424999999999998 ) // 86
( 0.030310889132455356 0.017499999999999998 0.19424999999999998 ) // 87
( 0.017500000000000005 0.030310889132455353 0.19424999999999998 ) // 88
( 2.1431318985078684e-18 0.035 0.19424999999999998 ) // 89
( -0.017499999999999995 0.030310889132455356 0.19424999999999998 ) // 90
( -0.03031088913245535 0.017500000000000012 0.19424999999999998 ) // 91
( -0.035 4.286263797015737e-18 0.19424999999999998 ) // 92
( -0.030310889132455363 -0.01749999999999999 0.19424999999999998 ) // 93
( -0.017500000000000016 -0.030310889132455346 0.19424999999999998 ) // 94
( -6.429395695523605e-18 -0.035 0.19424999999999998 ) // 95
( 0.017499999999999977 -0.03031088913245537 0.19424999999999998 ) // 96
( 0.030310889132455346 -0.017500000000000016 0.19424999999999998 ) // 97

//circles

//circle 0
( 0.07 0.0 0.19424999999999998 ) //98
( 0.06062177826491071 0.034999999999999996 0.19424999999999998 ) //99
( 0.03500000000000001 0.060621778264910706 0.19424999999999998 ) //100
( 4.286263797015737e-18 0.07 0.19424999999999998 ) //101
( -0.03499999999999999 0.06062177826491071 0.19424999999999998 ) //102
( -0.0606217782649107 0.035000000000000024 0.19424999999999998 ) //103
( -0.07 8.572527594031473e-18 0.19424999999999998 ) //104
( -0.060621778264910726 -0.03499999999999998 0.19424999999999998 ) //105
( -0.03500000000000003 -0.06062177826491069 0.19424999999999998 ) //106
( -1.285879139104721e-17 -0.07 0.19424999999999998 ) //107
( 0.034999999999999955 -0.06062177826491074 0.19424999999999998 ) //108
( 0.06062177826491069 -0.03500000000000003 0.19424999999999998 ) //109

//circle 1
( 0.12250000000000001 0.0 0.19424999999999998 ) //110
( 0.10608811196359375 0.06125 0.19424999999999998 ) //111
( 0.06125000000000002 0.10608811196359373 0.19424999999999998 ) //112
( 7.500961644777539e-18 0.12250000000000001 0.19424999999999998 ) //113
( -0.06124999999999998 0.10608811196359375 0.19424999999999998 ) //114
( -0.10608811196359373 0.06125000000000005 0.19424999999999998 ) //115
( -0.12250000000000001 1.5001923289555077e-17 0.19424999999999998 ) //116
( -0.10608811196359376 -0.06124999999999997 0.19424999999999998 ) //117
( -0.06125000000000006 -0.10608811196359372 0.19424999999999998 ) //118
( -2.2502884934332615e-17 -0.12250000000000001 0.19424999999999998 ) //119
( 0.06124999999999992 -0.10608811196359379 0.19424999999999998 ) //120
( 0.10608811196359372 -0.06125000000000006 0.19424999999999998 ) //121

//circle 2
( 0.17500000000000002 0.0 0.19424999999999998 ) //122
( 0.1515544456622768 0.0875 0.19424999999999998 ) //123
( 0.08750000000000002 0.15155444566227677 0.19424999999999998 ) //124
( 1.0715659492539341e-17 0.17500000000000002 0.19424999999999998 ) //125
( -0.08749999999999997 0.1515544456622768 0.19424999999999998 ) //126
( -0.15155444566227674 0.08750000000000006 0.19424999999999998 ) //127
( -0.17500000000000002 2.1431318985078683e-17 0.19424999999999998 ) //128
( -0.1515544456622768 -0.08749999999999995 0.19424999999999998 ) //129
( -0.08750000000000009 -0.15155444566227674 0.19424999999999998 ) //130
( -3.2146978477618024e-17 -0.17500000000000002 0.19424999999999998 ) //131
( 0.0874999999999999 -0.15155444566227685 0.19424999999999998 ) //132
( 0.15155444566227674 -0.08750000000000009 0.19424999999999998 ) //133

//circle 3
( 0.29750000000000004 0.0 0.19424999999999998 ) //134
( 0.25764255762587057 0.14875 0.19424999999999998 ) //135
( 0.14875000000000005 0.2576425576258705 0.19424999999999998 ) //136
( 1.8216621137316882e-17 0.29750000000000004 0.19424999999999998 ) //137
( -0.14874999999999997 0.25764255762587057 0.19424999999999998 ) //138
( -0.25764255762587046 0.14875000000000013 0.19424999999999998 ) //139
( -0.29750000000000004 3.6433242274633764e-17 0.19424999999999998 ) //140
( -0.25764255762587057 -0.14874999999999994 0.19424999999999998 ) //141
( -0.14875000000000016 -0.25764255762587046 0.19424999999999998 ) //142
( -5.464986341195064e-17 -0.29750000000000004 0.19424999999999998 ) //143
( 0.14874999999999983 -0.2576425576258706 0.19424999999999998 ) //144
( 0.25764255762587046 -0.14875000000000016 0.19424999999999998 ) //145

//circle 4
( 0.42000000000000004 0.0 0.19424999999999998 ) //146
( 0.3637306695894643 0.21 0.19424999999999998 ) //147
( 0.21000000000000008 0.36373066958946426 0.19424999999999998 ) //148
( 2.571758278209442e-17 0.42000000000000004 0.19424999999999998 ) //149
( -0.20999999999999994 0.3637306695894643 0.19424999999999998 ) //150
( -0.3637306695894642 0.21000000000000016 0.19424999999999998 ) //151
( -0.42000000000000004 5.143516556418884e-17 0.19424999999999998 ) //152
( -0.3637306695894643 -0.2099999999999999 0.19424999999999998 ) //153
( -0.21000000000000021 -0.36373066958946415 0.19424999999999998 ) //154
( -7.715274834628325e-17 -0.42000000000000004 0.19424999999999998 ) //155
( 0.20999999999999974 -0.36373066958946443 0.19424999999999998 ) //156
( 0.36373066958946415 -0.21000000000000021 0.19424999999999998 ) //157

//circle 5
( 0.525 0.0 0.19424999999999998 ) //158
( 0.4546633369868303 0.26249999999999996 0.19424999999999998 ) //159
( 0.26250000000000007 0.45466333698683026 0.19424999999999998 ) //160
( 3.2146978477618024e-17 0.525 0.19424999999999998 ) //161
( -0.2624999999999999 0.4546633369868303 0.19424999999999998 ) //162
( -0.4546633369868302 0.2625000000000002 0.19424999999999998 ) //163
( -0.525 6.429395695523605e-17 0.19424999999999998 ) //164
( -0.4546633369868304 -0.26249999999999984 0.19424999999999998 ) //165
( -0.26250000000000023 -0.45466333698683015 0.19424999999999998 ) //166
( -9.644093543285407e-17 -0.525 0.19424999999999998 ) //167
( 0.2624999999999997 -0.45466333698683054 0.19424999999999998 ) //168
( 0.45466333698683015 -0.26250000000000023 0.19424999999999998 ) //169

//section 2

//center
(0.0 0.0 0.2415) // 170

//polygon
( 0.035 0.0 0.2415 ) // 171
( 0.030310889132455356 0.017499999999999998 0.2415 ) // 172
( 0.017500000000000005 0.030310889132455353 0.2415 ) // 173
( 2.1431318985078684e-18 0.035 0.2415 ) // 174
( -0.017499999999999995 0.030310889132455356 0.2415 ) // 175
( -0.03031088913245535 0.017500000000000012 0.2415 ) // 176
( -0.035 4.286263797015737e-18 0.2415 ) // 177
( -0.030310889132455363 -0.01749999999999999 0.2415 ) // 178
( -0.017500000000000016 -0.030310889132455346 0.2415 ) // 179
( -6.429395695523605e-18 -0.035 0.2415 ) // 180
( 0.017499999999999977 -0.03031088913245537 0.2415 ) // 181
( 0.030310889132455346 -0.017500000000000016 0.2415 ) // 182

//circles

//circle 0
( 0.07 0.0 0.2415 ) //183
( 0.06062177826491071 0.034999999999999996 0.2415 ) //184
( 0.03500000000000001 0.060621778264910706 0.2415 ) //185
( 4.286263797015737e-18 0.07 0.2415 ) //186
( -0.03499999999999999 0.06062177826491071 0.2415 ) //187
( -0.0606217782649107 0.035000000000000024 0.2415 ) //188
( -0.07 8.572527594031473e-18 0.2415 ) //189
( -0.060621778264910726 -0.03499999999999998 0.2415 ) //190
( -0.03500000000000003 -0.06062177826491069 0.2415 ) //191
( -1.285879139104721e-17 -0.07 0.2415 ) //192
( 0.034999999999999955 -0.06062177826491074 0.2415 ) //193
( 0.06062177826491069 -0.03500000000000003 0.2415 ) //194

//circle 1
( 0.12250000000000001 0.0 0.2415 ) //195
( 0.10608811196359375 0.06125 0.2415 ) //196
( 0.06125000000000002 0.10608811196359373 0.2415 ) //197
( 7.500961644777539e-18 0.12250000000000001 0.2415 ) //198
( -0.06124999999999998 0.10608811196359375 0.2415 ) //199
( -0.10608811196359373 0.06125000000000005 0.2415 ) //200
( -0.12250000000000001 1.5001923289555077e-17 0.2415 ) //201
( -0.10608811196359376 -0.06124999999999997 0.2415 ) //202
( -0.06125000000000006 -0.10608811196359372 0.2415 ) //203
( -2.2502884934332615e-17 -0.12250000000000001 0.2415 ) //204
( 0.06124999999999992 -0.10608811196359379 0.2415 ) //205
( 0.10608811196359372 -0.06125000000000006 0.2415 ) //206

//circle 2
( 0.17500000000000002 0.0 0.2415 ) //207
( 0.1515544456622768 0.0875 0.2415 ) //208
( 0.08750000000000002 0.15155444566227677 0.2415 ) //209
( 1.0715659492539341e-17 0.17500000000000002 0.2415 ) //210
( -0.08749999999999997 0.1515544456622768 0.2415 ) //211
( -0.15155444566227674 0.08750000000000006 0.2415 ) //212
( -0.17500000000000002 2.1431318985078683e-17 0.2415 ) //213
( -0.1515544456622768 -0.08749999999999995 0.2415 ) //214
( -0.08750000000000009 -0.15155444566227674 0.2415 ) //215
( -3.2146978477618024e-17 -0.17500000000000002 0.2415 ) //216
( 0.0874999999999999 -0.15155444566227685 0.2415 ) //217
( 0.15155444566227674 -0.08750000000000009 0.2415 ) //218

//circle 3
( 0.29750000000000004 0.0 0.2415 ) //219
( 0.25764255762587057 0.14875 0.2415 ) //220
( 0.14875000000000005 0.2576425576258705 0.2415 ) //221
( 1.8216621137316882e-17 0.29750000000000004 0.2415 ) //222
( -0.14874999999999997 0.25764255762587057 0.2415 ) //223
( -0.25764255762587046 0.14875000000000013 0.2415 ) //224
( -0.29750000000000004 3.6433242274633764e-17 0.2415 ) //225
( -0.25764255762587057 -0.14874999999999994 0.2415 ) //226
( -0.14875000000000016 -0.25764255762587046 0.2415 ) //227
( -5.464986341195064e-17 -0.29750000000000004 0.2415 ) //228
( 0.14874999999999983 -0.2576425576258706 0.2415 ) //229
( 0.25764255762587046 -0.14875000000000016 0.2415 ) //230

//circle 4
( 0.42000000000000004 0.0 0.2415 ) //231
( 0.3637306695894643 0.21 0.2415 ) //232
( 0.21000000000000008 0.36373066958946426 0.2415 ) //233
( 2.571758278209442e-17 0.42000000000000004 0.2415 ) //234
( -0.20999999999999994 0.3637306695894643 0.2415 ) //235
( -0.3637306695894642 0.21000000000000016 0.2415 ) //236
( -0.42000000000000004 5.143516556418884e-17 0.2415 ) //237
( -0.3637306695894643 -0.2099999999999999 0.2415 ) //238
( -0.21000000000000021 -0.36373066958946415 0.2415 ) //239
( -7.715274834628325e-17 -0.42000000000000004 0.2415 ) //240
( 0.20999999999999974 -0.36373066958946443 0.2415 ) //241
( 0.36373066958946415 -0.21000000000000021 0.2415 ) //242

//circle 5
( 0.525 0.0 0.2415 ) //243
( 0.4546633369868303 0.26249999999999996 0.2415 ) //244
( 0.26250000000000007 0.45466333698683026 0.2415 ) //245
( 3.2146978477618024e-17 0.525 0.2415 ) //246
( -0.2624999999999999 0.4546633369868303 0.2415 ) //247
( -0.4546633369868302 0.2625000000000002 0.2415 ) //248
( -0.525 6.429395695523605e-17 0.2415 ) //249
( -0.4546633369868304 -0.26249999999999984 0.2415 ) //250
( -0.26250000000000023 -0.45466333698683015 0.2415 ) //251
( -9.644093543285407e-17 -0.525 0.2415 ) //252
( 0.2624999999999997 -0.45466333698683054 0.2415 ) //253
( 0.45466333698683015 -0.26250000000000023 0.2415 ) //254

//section 3

//center
(0.0 0.0 0.252) // 255

//polygon
( 0.035 0.0 0.252 ) // 256
( 0.030310889132455356 0.017499999999999998 0.252 ) // 257
( 0.017500000000000005 0.030310889132455353 0.252 ) // 258
( 2.1431318985078684e-18 0.035 0.252 ) // 259
( -0.017499999999999995 0.030310889132455356 0.252 ) // 260
( -0.03031088913245535 0.017500000000000012 0.252 ) // 261
( -0.035 4.286263797015737e-18 0.252 ) // 262
( -0.030310889132455363 -0.01749999999999999 0.252 ) // 263
( -0.017500000000000016 -0.030310889132455346 0.252 ) // 264
( -6.429395695523605e-18 -0.035 0.252 ) // 265
( 0.017499999999999977 -0.03031088913245537 0.252 ) // 266
( 0.030310889132455346 -0.017500000000000016 0.252 ) // 267

//circles

//circle 0
( 0.07 0.0 0.252 ) //268
( 0.06062177826491071 0.034999999999999996 0.252 ) //269
( 0.03500000000000001 0.060621778264910706 0.252 ) //270
( 4.286263797015737e-18 0.07 0.252 ) //271
( -0.03499999999999999 0.06062177826491071 0.252 ) //272
( -0.0606217782649107 0.035000000000000024 0.252 ) //273
( -0.07 8.572527594031473e-18 0.252 ) //274
( -0.060621778264910726 -0.03499999999999998 0.252 ) //275
( -0.03500000000000003 -0.06062177826491069 0.252 ) //276
( -1.285879139104721e-17 -0.07 0.252 ) //277
( 0.034999999999999955 -0.06062177826491074 0.252 ) //278
( 0.06062177826491069 -0.03500000000000003 0.252 ) //279

//circle 1
( 0.12250000000000001 0.0 0.252 ) //280
( 0.10608811196359375 0.06125 0.252 ) //281
( 0.06125000000000002 0.10608811196359373 0.252 ) //282
( 7.500961644777539e-18 0.12250000000000001 0.252 ) //283
( -0.06124999999999998 0.10608811196359375 0.252 ) //284
( -0.10608811196359373 0.06125000000000005 0.252 ) //285
( -0.12250000000000001 1.5001923289555077e-17 0.252 ) //286
( -0.10608811196359376 -0.06124999999999997 0.252 ) //287
( -0.06125000000000006 -0.10608811196359372 0.252 ) //288
( -2.2502884934332615e-17 -0.12250000000000001 0.252 ) //289
( 0.06124999999999992 -0.10608811196359379 0.252 ) //290
( 0.10608811196359372 -0.06125000000000006 0.252 ) //291

//circle 2
( 0.17500000000000002 0.0 0.252 ) //292
( 0.1515544456622768 0.0875 0.252 ) //293
( 0.08750000000000002 0.15155444566227677 0.252 ) //294
( 1.0715659492539341e-17 0.17500000000000002 0.252 ) //295
( -0.08749999999999997 0.1515544456622768 0.252 ) //296
( -0.15155444566227674 0.08750000000000006 0.252 ) //297
( -0.17500000000000002 2.1431318985078683e-17 0.252 ) //298
( -0.1515544456622768 -0.08749999999999995 0.252 ) //299
( -0.08750000000000009 -0.15155444566227674 0.252 ) //300
( -3.2146978477618024e-17 -0.17500000000000002 0.252 ) //301
( 0.0874999999999999 -0.15155444566227685 0.252 ) //302
( 0.15155444566227674 -0.08750000000000009 0.252 ) //303

//circle 3
( 0.29750000000000004 0.0 0.252 ) //304
( 0.25764255762587057 0.14875 0.252 ) //305
( 0.14875000000000005 0.2576425576258705 0.252 ) //306
( 1.8216621137316882e-17 0.29750000000000004 0.252 ) //307
( -0.14874999999999997 0.25764255762587057 0.252 ) //308
( -0.25764255762587046 0.14875000000000013 0.252 ) //309
( -0.29750000000000004 3.6433242274633764e-17 0.252 ) //310
( -0.25764255762587057 -0.14874999999999994 0.252 ) //311
( -0.14875000000000016 -0.25764255762587046 0.252 ) //312
( -5.464986341195064e-17 -0.29750000000000004 0.252 ) //313
( 0.14874999999999983 -0.2576425576258706 0.252 ) //314
( 0.25764255762587046 -0.14875000000000016 0.252 ) //315

//circle 4
( 0.42000000000000004 0.0 0.252 ) //316
( 0.3637306695894643 0.21 0.252 ) //317
( 0.21000000000000008 0.36373066958946426 0.252 ) //318
( 2.571758278209442e-17 0.42000000000000004 0.252 ) //319
( -0.20999999999999994 0.3637306695894643 0.252 ) //320
( -0.3637306695894642 0.21000000000000016 0.252 ) //321
( -0.42000000000000004 5.143516556418884e-17 0.252 ) //322
( -0.3637306695894643 -0.2099999999999999 0.252 ) //323
( -0.21000000000000021 -0.36373066958946415 0.252 ) //324
( -7.715274834628325e-17 -0.42000000000000004 0.252 ) //325
( 0.20999999999999974 -0.36373066958946443 0.252 ) //326
( 0.36373066958946415 -0.21000000000000021 0.252 ) //327

//circle 5
( 0.525 0.0 0.252 ) //328
( 0.4546633369868303 0.26249999999999996 0.252 ) //329
( 0.26250000000000007 0.45466333698683026 0.252 ) //330
( 3.2146978477618024e-17 0.525 0.252 ) //331
( -0.2624999999999999 0.4546633369868303 0.252 ) //332
( -0.4546633369868302 0.2625000000000002 0.252 ) //333
( -0.525 6.429395695523605e-17 0.252 ) //334
( -0.4546633369868304 -0.26249999999999984 0.252 ) //335
( -0.26250000000000023 -0.45466333698683015 0.252 ) //336
( -9.644093543285407e-17 -0.525 0.252 ) //337
( 0.2624999999999997 -0.45466333698683054 0.252 ) //338
( 0.45466333698683015 -0.26250000000000023 0.252 ) //339

//section 4

//center
(0.0 0.0 0.29925) // 340

//polygon
( 0.035 0.0 0.29925 ) // 341
( 0.030310889132455356 0.017499999999999998 0.29925 ) // 342
( 0.017500000000000005 0.030310889132455353 0.29925 ) // 343
( 2.1431318985078684e-18 0.035 0.29925 ) // 344
( -0.017499999999999995 0.030310889132455356 0.29925 ) // 345
( -0.03031088913245535 0.017500000000000012 0.29925 ) // 346
( -0.035 4.286263797015737e-18 0.29925 ) // 347
( -0.030310889132455363 -0.01749999999999999 0.29925 ) // 348
( -0.017500000000000016 -0.030310889132455346 0.29925 ) // 349
( -6.429395695523605e-18 -0.035 0.29925 ) // 350
( 0.017499999999999977 -0.03031088913245537 0.29925 ) // 351
( 0.030310889132455346 -0.017500000000000016 0.29925 ) // 352

//circles

//circle 0
( 0.07 0.0 0.29925 ) //353
( 0.06062177826491071 0.034999999999999996 0.29925 ) //354
( 0.03500000000000001 0.060621778264910706 0.29925 ) //355
( 4.286263797015737e-18 0.07 0.29925 ) //356
( -0.03499999999999999 0.06062177826491071 0.29925 ) //357
( -0.0606217782649107 0.035000000000000024 0.29925 ) //358
( -0.07 8.572527594031473e-18 0.29925 ) //359
( -0.060621778264910726 -0.03499999999999998 0.29925 ) //360
( -0.03500000000000003 -0.06062177826491069 0.29925 ) //361
( -1.285879139104721e-17 -0.07 0.29925 ) //362
( 0.034999999999999955 -0.06062177826491074 0.29925 ) //363
( 0.06062177826491069 -0.03500000000000003 0.29925 ) //364

//circle 1
( 0.12250000000000001 0.0 0.29925 ) //365
( 0.10608811196359375 0.06125 0.29925 ) //366
( 0.06125000000000002 0.10608811196359373 0.29925 ) //367
( 7.500961644777539e-18 0.12250000000000001 0.29925 ) //368
( -0.06124999999999998 0.10608811196359375 0.29925 ) //369
( -0.10608811196359373 0.06125000000000005 0.29925 ) //370
( -0.12250000000000001 1.5001923289555077e-17 0.29925 ) //371
( -0.10608811196359376 -0.06124999999999997 0.29925 ) //372
( -0.06125000000000006 -0.10608811196359372 0.29925 ) //373
( -2.2502884934332615e-17 -0.12250000000000001 0.29925 ) //374
( 0.06124999999999992 -0.10608811196359379 0.29925 ) //375
( 0.10608811196359372 -0.06125000000000006 0.29925 ) //376

//circle 2
( 0.17500000000000002 0.0 0.29925 ) //377
( 0.1515544456622768 0.0875 0.29925 ) //378
( 0.08750000000000002 0.15155444566227677 0.29925 ) //379
( 1.0715659492539341e-17 0.17500000000000002 0.29925 ) //380
( -0.08749999999999997 0.1515544456622768 0.29925 ) //381
( -0.15155444566227674 0.08750000000000006 0.29925 ) //382
( -0.17500000000000002 2.1431318985078683e-17 0.29925 ) //383
( -0.1515544456622768 -0.08749999999999995 0.29925 ) //384
( -0.08750000000000009 -0.15155444566227674 0.29925 ) //385
( -3.2146978477618024e-17 -0.17500000000000002 0.29925 ) //386
( 0.0874999999999999 -0.15155444566227685 0.29925 ) //387
( 0.15155444566227674 -0.08750000000000009 0.29925 ) //388

//circle 3
( 0.29750000000000004 0.0 0.29925 ) //389
( 0.25764255762587057 0.14875 0.29925 ) //390
( 0.14875000000000005 0.2576425576258705 0.29925 ) //391
( 1.8216621137316882e-17 0.29750000000000004 0.29925 ) //392
( -0.14874999999999997 0.25764255762587057 0.29925 ) //393
( -0.25764255762587046 0.14875000000000013 0.29925 ) //394
( -0.29750000000000004 3.6433242274633764e-17 0.29925 ) //395
( -0.25764255762587057 -0.14874999999999994 0.29925 ) //396
( -0.14875000000000016 -0.25764255762587046 0.29925 ) //397
( -5.464986341195064e-17 -0.29750000000000004 0.29925 ) //398
( 0.14874999999999983 -0.2576425576258706 0.29925 ) //399
( 0.25764255762587046 -0.14875000000000016 0.29925 ) //400

//circle 4
( 0.42000000000000004 0.0 0.29925 ) //401
( 0.3637306695894643 0.21 0.29925 ) //402
( 0.21000000000000008 0.36373066958946426 0.29925 ) //403
( 2.571758278209442e-17 0.42000000000000004 0.29925 ) //404
( -0.20999999999999994 0.3637306695894643 0.29925 ) //405
( -0.3637306695894642 0.21000000000000016 0.29925 ) //406
( -0.42000000000000004 5.143516556418884e-17 0.29925 ) //407
( -0.3637306695894643 -0.2099999999999999 0.29925 ) //408
( -0.21000000000000021 -0.36373066958946415 0.29925 ) //409
( -7.715274834628325e-17 -0.42000000000000004 0.29925 ) //410
( 0.20999999999999974 -0.36373066958946443 0.29925 ) //411
( 0.36373066958946415 -0.21000000000000021 0.29925 ) //412

//circle 5
( 0.525 0.0 0.29925 ) //413
( 0.4546633369868303 0.26249999999999996 0.29925 ) //414
( 0.26250000000000007 0.45466333698683026 0.29925 ) //415
( 3.2146978477618024e-17 0.525 0.29925 ) //416
( -0.2624999999999999 0.4546633369868303 0.29925 ) //417
( -0.4546633369868302 0.2625000000000002 0.29925 ) //418
( -0.525 6.429395695523605e-17 0.29925 ) //419
( -0.4546633369868304 -0.26249999999999984 0.29925 ) //420
( -0.26250000000000023 -0.45466333698683015 0.29925 ) //421
( -9.644093543285407e-17 -0.525 0.29925 ) //422
( 0.2624999999999997 -0.45466333698683054 0.29925 ) //423
( 0.45466333698683015 -0.26250000000000023 0.29925 ) //424

//section 5

//center
(0.0 0.0 0.7980000000000002) // 425

//polygon
( 0.035 0.0 0.7980000000000002 ) // 426
( 0.030310889132455356 0.017499999999999998 0.7980000000000002 ) // 427
( 0.017500000000000005 0.030310889132455353 0.7980000000000002 ) // 428
( 2.1431318985078684e-18 0.035 0.7980000000000002 ) // 429
( -0.017499999999999995 0.030310889132455356 0.7980000000000002 ) // 430
( -0.03031088913245535 0.017500000000000012 0.7980000000000002 ) // 431
( -0.035 4.286263797015737e-18 0.7980000000000002 ) // 432
( -0.030310889132455363 -0.01749999999999999 0.7980000000000002 ) // 433
( -0.017500000000000016 -0.030310889132455346 0.7980000000000002 ) // 434
( -6.429395695523605e-18 -0.035 0.7980000000000002 ) // 435
( 0.017499999999999977 -0.03031088913245537 0.7980000000000002 ) // 436
( 0.030310889132455346 -0.017500000000000016 0.7980000000000002 ) // 437

//circles

//circle 0
( 0.07 0.0 0.7980000000000002 ) //438
( 0.06062177826491071 0.034999999999999996 0.7980000000000002 ) //439
( 0.03500000000000001 0.060621778264910706 0.7980000000000002 ) //440
( 4.286263797015737e-18 0.07 0.7980000000000002 ) //441
( -0.03499999999999999 0.06062177826491071 0.7980000000000002 ) //442
( -0.0606217782649107 0.035000000000000024 0.7980000000000002 ) //443
( -0.07 8.572527594031473e-18 0.7980000000000002 ) //444
( -0.060621778264910726 -0.03499999999999998 0.7980000000000002 ) //445
( -0.03500000000000003 -0.06062177826491069 0.7980000000000002 ) //446
( -1.285879139104721e-17 -0.07 0.7980000000000002 ) //447
( 0.034999999999999955 -0.06062177826491074 0.7980000000000002 ) //448
( 0.06062177826491069 -0.03500000000000003 0.7980000000000002 ) //449

//circle 1
( 0.12250000000000001 0.0 0.7980000000000002 ) //450
( 0.10608811196359375 0.06125 0.7980000000000002 ) //451
( 0.06125000000000002 0.10608811196359373 0.7980000000000002 ) //452
( 7.500961644777539e-18 0.12250000000000001 0.7980000000000002 ) //453
( -0.06124999999999998 0.10608811196359375 0.7980000000000002 ) //454
( -0.10608811196359373 0.06125000000000005 0.7980000000000002 ) //455
( -0.12250000000000001 1.5001923289555077e-17 0.7980000000000002 ) //456
( -0.10608811196359376 -0.06124999999999997 0.7980000000000002 ) //457
( -0.06125000000000006 -0.10608811196359372 0.7980000000000002 ) //458
( -2.2502884934332615e-17 -0.12250000000000001 0.7980000000000002 ) //459
( 0.06124999999999992 -0.10608811196359379 0.7980000000000002 ) //460
( 0.10608811196359372 -0.06125000000000006 0.7980000000000002 ) //461

//circle 2
( 0.17500000000000002 0.0 0.7980000000000002 ) //462
( 0.1515544456622768 0.0875 0.7980000000000002 ) //463
( 0.08750000000000002 0.15155444566227677 0.7980000000000002 ) //464
( 1.0715659492539341e-17 0.17500000000000002 0.7980000000000002 ) //465
( -0.08749999999999997 0.1515544456622768 0.7980000000000002 ) //466
( -0.15155444566227674 0.08750000000000006 0.7980000000000002 ) //467
( -0.17500000000000002 2.1431318985078683e-17 0.7980000000000002 ) //468
( -0.1515544456622768 -0.08749999999999995 0.7980000000000002 ) //469
( -0.08750000000000009 -0.15155444566227674 0.7980000000000002 ) //470
( -3.2146978477618024e-17 -0.17500000000000002 0.7980000000000002 ) //471
( 0.0874999999999999 -0.15155444566227685 0.7980000000000002 ) //472
( 0.15155444566227674 -0.08750000000000009 0.7980000000000002 ) //473

//circle 3
( 0.29750000000000004 0.0 0.7980000000000002 ) //474
( 0.25764255762587057 0.14875 0.7980000000000002 ) //475
( 0.14875000000000005 0.2576425576258705 0.7980000000000002 ) //476
( 1.8216621137316882e-17 0.29750000000000004 0.7980000000000002 ) //477
( -0.14874999999999997 0.25764255762587057 0.7980000000000002 ) //478
( -0.25764255762587046 0.14875000000000013 0.7980000000000002 ) //479
( -0.29750000000000004 3.6433242274633764e-17 0.7980000000000002 ) //480
( -0.25764255762587057 -0.14874999999999994 0.7980000000000002 ) //481
( -0.14875000000000016 -0.25764255762587046 0.7980000000000002 ) //482
( -5.464986341195064e-17 -0.29750000000000004 0.7980000000000002 ) //483
( 0.14874999999999983 -0.2576425576258706 0.7980000000000002 ) //484
( 0.25764255762587046 -0.14875000000000016 0.7980000000000002 ) //485

//circle 4
( 0.42000000000000004 0.0 0.7980000000000002 ) //486
( 0.3637306695894643 0.21 0.7980000000000002 ) //487
( 0.21000000000000008 0.36373066958946426 0.7980000000000002 ) //488
( 2.571758278209442e-17 0.42000000000000004 0.7980000000000002 ) //489
( -0.20999999999999994 0.3637306695894643 0.7980000000000002 ) //490
( -0.3637306695894642 0.21000000000000016 0.7980000000000002 ) //491
( -0.42000000000000004 5.143516556418884e-17 0.7980000000000002 ) //492