/*--------------------------------*- C++ -*----------------------------------*\
| =========                 |                                                 |
| \\      /  F ield         | OpenFOAM: The Open Source CFD Toolbox           |
|  \\    /   O peration     | Version:  3.0.0                                 |
|   \\  /    A nd           | Web:      www.OpenFOAM.org                      |
|    \\/     M anipulation  |                                                 |
\*---------------------------------------------------------------------------*/
FoamFile
{
    version     2.0;
    format      ascii;
    class       volScalarField;
    object      p;
}
// * * * * * * * * * * * * * * * * * * * * * * * * * * * * * * * * * * * * * //

dimensions          [1 -1 -2 0 0 0 0];

#include "${FOAM_CASE}/constant/globalTransport"

internalField       uniform $P0;

boundaryField
{

    #includeEtc "caseDicts/setConstraintTypes"
  
    inlet
    {
        type               calculated;
        value              $internalField;
    }
    outlet
    {
        type               calculated;
        value              $internalField;
    }
    walls
    {
        type               calculated;
        value              $internalField;
    }
    propeller
    {
        type               calculated;
        value              $internalField;
    }
}

// * * * * * * * * * * * * * * * * * * * * * * * * * * * * * * * * * * * * * //
