THERMO ALL
H2O
CO2
H2CO3
HCO3
H2PO4
HPO4
C6H6O4
C6H5O4
C6H4O4
NH3
NH4
OH
H