ELEMENTS
O  H  C  P  N
END
SPECIES
CO2      H2O      H2CO3    HCO3    H
H2PO4    HPO4     OH       NH4     NH3
C6H6O4   C6H5O4   C6H4O4
END
REACTIONS
! Carbonic Acid rates from Oliveira et al 2023 Table in Fig. 4
CO2+H2O<=>H2CO3     6.000E-2   0.000E+0    0.000E+0
REV / 1.500E+1    0.000E+0    0.000E+0 /
H2CO3<=>H+HCO3      1.000E+11   0.000E+0    0.000E+0
REV / 5.000E+13    0.000E+0    0.000E+0 /
! FIND
H2PO4<=>H+HPO4
! Muconic Acid Dissociation rates from Carraher et al. 2017 Supp. Material 
C6H6O4<=>H+C6H5O4      4.000E-
C6H5O4<=>H+C6H4O4
! FIND
OH+NH4<=>NH3+H2O
END