/*--------------------------------*- C++ -*----------------------------------*\
| =========                 |                                                 |
| \      /  F ield         | OpenFOAM: The Open Source CFD Toolbox           |
|  \    /   O peration     | Version:  5                                     |
|   \  /    A nd           | Web:      www.OpenFOAM.org                      |
|    \/     M anipulation  |                                                 |
\*---------------------------------------------------------------------------*/
FoamFile
{
	version     2.0;
	format      ascii;
	class       dictionary;
	object      blockMeshDict;
}

// * * * * * * * * * * * * * * * * * * * * * * * * * * * * * * * * * * * * * //

convertToMeters 1.0;

// * * * * * * * * * * * * * * * * * * * * * * * * * * * * * * * * * * * * * //


// * * * * * * * * * * * * * * * * * * * * * * * * * * * * * * * * * * * * * //
vertices
(

//section 0

//center
(0.0 0.0 -0.014999999999999993) // 0

//polygon
( 0.004 0.0 -0.014881742881875777 ) // 1

//circles
( 0.0034641016151377548 0.0019999999999999996 -0.014881742881875777 ) // 2

//circles
( 0.0020000000000000005 0.0034641016151377543 -0.014881742881875777 ) // 3

//circles
( 2.4492935982947063e-19 0.004 -0.014881742881875777 ) // 4

//circles
( -0.001999999999999999 0.0034641016151377548 -0.014881742881875777 ) // 5

//circles
( -0.003464101615137754 0.0020000000000000013 -0.014881742881875777 ) // 6

//circles
( -0.004 4.898587196589413e-19 -0.014881742881875777 ) // 7

//circles
( -0.003464101615137755 -0.001999999999999999 -0.014881742881875777 ) // 8

//circles
( -0.0020000000000000018 -0.0034641016151377535 -0.014881742881875777 ) // 9

//circles
( -7.347880794884119e-19 -0.004 -0.014881742881875777 ) // 10

//circles
( 0.0019999999999999974 -0.003464101615137756 -0.014881742881875777 ) // 11

//circles
( 0.0034641016151377535 -0.0020000000000000018 -0.014881742881875777 ) // 12

//circles
( 0.010499999999999999 0.0 -0.01418089152970254 ) //13
( 0.009093266739736606 0.005249999999999999 -0.01418089152970254 ) //14
( 0.00525 0.009093266739736604 -0.01418089152970254 ) //15
( 6.429395695523604e-19 0.010499999999999999 -0.01418089152970254 ) //16
( -0.005249999999999998 0.009093266739736606 -0.01418089152970254 ) //17
( -0.009093266739736603 0.005250000000000003 -0.01418089152970254 ) //18
( -0.010499999999999999 1.2858791391047207e-18 -0.01418089152970254 ) //19
( -0.009093266739736606 -0.005249999999999997 -0.01418089152970254 ) //20
( -0.005250000000000004 -0.009093266739736603 -0.01418089152970254 ) //21
( -1.928818708657081e-18 -0.010499999999999999 -0.01418089152970254 ) //22
( 0.0052499999999999925 -0.00909326673973661 -0.01418089152970254 ) //23
( 0.009093266739736603 -0.005250000000000004 -0.01418089152970254 ) //24
( 0.0135 0.0 -0.014104947282637038 ) //25
( 0.011691342951089922 0.006749999999999999 -0.014104947282637038 ) //26
( 0.006750000000000002 0.01169134295108992 -0.014104947282637038 ) //27
( 8.266365894244634e-19 0.0135 -0.014104947282637038 ) //28
( -0.006749999999999997 0.011691342951089922 -0.014104947282637038 ) //29
( -0.011691342951089919 0.006750000000000004 -0.014104947282637038 ) //30
( -0.0135 1.6532731788489268e-18 -0.014104947282637038 ) //31
( -0.011691342951089924 -0.006749999999999997 -0.014104947282637038 ) //32
( -0.006750000000000006 -0.011691342951089917 -0.014104947282637038 ) //33
( -2.47990976827339e-18 -0.0135 -0.014104947282637038 ) //34
( 0.006749999999999991 -0.011691342951089928 -0.014104947282637038 ) //35
( 0.011691342951089917 -0.006750000000000006 -0.014104947282637038 ) //36
( 0.02 0.0 -0.01288753611082303 ) //37
( 0.017320508075688773 0.009999999999999998 -0.01288753611082303 ) //38
( 0.010000000000000002 0.017320508075688773 -0.01288753611082303 ) //39
( 1.2246467991473532e-18 0.02 -0.01288753611082303 ) //40
( -0.009999999999999997 0.017320508075688773 -0.01288753611082303 ) //41
( -0.01732050807568877 0.010000000000000007 -0.01288753611082303 ) //42
( -0.02 2.4492935982947064e-18 -0.01288753611082303 ) //43
( -0.017320508075688777 -0.009999999999999995 -0.01288753611082303 ) //44
( -0.010000000000000009 -0.01732050807568877 -0.01288753611082303 ) //45
( -3.673940397442059e-18 -0.02 -0.01288753611082303 ) //46
( 0.009999999999999986 -0.01732050807568878 -0.01288753611082303 ) //47
( 0.01732050807568877 -0.010000000000000009 -0.01288753611082303 ) //48
( 0.0305 0.0 -0.009019735557889277 ) //49
( 0.02641377481542538 0.015249999999999998 -0.009019735557889277 ) //50
( 0.015250000000000003 0.026413774815425378 -0.009019735557889277 ) //51
( 1.8675863686997137e-18 0.0305 -0.009019735557889277 ) //52
( -0.015249999999999994 0.02641377481542538 -0.009019735557889277 ) //53
( -0.026413774815425374 0.01525000000000001 -0.009019735557889277 ) //54
( -0.0305 3.7351727373994275e-18 -0.009019735557889277 ) //55
( -0.026413774815425384 -0.015249999999999993 -0.009019735557889277 ) //56
( -0.015250000000000014 -0.02641377481542537 -0.009019735557889277 ) //57
( -5.60275910609914e-18 -0.0305 -0.009019735557889277 ) //58
( 0.015249999999999979 -0.02641377481542539 -0.009019735557889277 ) //59
( 0.02641377481542537 -0.015250000000000014 -0.009019735557889277 ) //60
( 0.041 0.0 -0.0026996948120754302 ) //61
( 0.03550704155516199 0.020499999999999997 -0.0026996948120754302 ) //62
( 0.020500000000000004 0.03550704155516198 -0.0026996948120754302 ) //63
( 2.5105259382520743e-18 0.041 -0.0026996948120754302 ) //64
( -0.020499999999999994 0.03550704155516199 -0.0026996948120754302 ) //65
( -0.03550704155516198 0.020500000000000015 -0.0026996948120754302 ) //66
( -0.041 5.0210518765041486e-18 -0.0026996948120754302 ) //67
( -0.035507041555161996 -0.02049999999999999 -0.0026996948120754302 ) //68
( -0.020500000000000018 -0.035507041555161975 -0.0026996948120754302 ) //69
( -7.531577814756222e-18 -0.041 -0.0026996948120754302 ) //70
( 0.020499999999999973 -0.035507041555162 -0.0026996948120754302 ) //71
( 0.035507041555161975 -0.020500000000000018 -0.0026996948120754302 ) //72
( 0.0425 0.0 6.938893903907228e-18 ) //73
( 0.036806079660838646 0.021249999999999998 6.938893903907228e-18 ) //74
( 0.021250000000000005 0.036806079660838646 6.938893903907228e-18 ) //75
( 2.6023744481881256e-18 0.0425 6.938893903907228e-18 ) //76
( -0.021249999999999995 0.036806079660838646 6.938893903907228e-18 ) //77
( -0.03680607966083864 0.021250000000000015 6.938893903907228e-18 ) //78
( -0.0425 5.204748896376251e-18 6.938893903907228e-18 ) //79
( -0.03680607966083865 -0.02124999999999999 6.938893903907228e-18 ) //80
( -0.02125000000000002 -0.03680607966083863 6.938893903907228e-18 ) //81
( -7.807123344564376e-18 -0.0425 6.938893903907228e-18 ) //82
( 0.021249999999999974 -0.03680607966083866 6.938893903907228e-18 ) //83
( 0.03680607966083863 -0.02125000000000002 6.938893903907228e-18 ) //84

//section 1

//center
(0.0 0.0 0.005749999999999999) // 85

//polygon
( 0.004 0.0 0.005749999999999999 ) // 86
( 0.0034641016151377548 0.0019999999999999996 0.005749999999999999 ) // 87
( 0.0020000000000000005 0.0034641016151377543 0.005749999999999999 ) // 88
( 2.4492935982947063e-19 0.004 0.005749999999999999 ) // 89
( -0.001999999999999999 0.0034641016151377548 0.005749999999999999 ) // 90
( -0.003464101615137754 0.0020000000000000013 0.005749999999999999 ) // 91
( -0.004 4.898587196589413e-19 0.005749999999999999 ) // 92
( -0.003464101615137755 -0.001999999999999999 0.005749999999999999 ) // 93
( -0.0020000000000000018 -0.0034641016151377535 0.005749999999999999 ) // 94
( -7.347880794884119e-19 -0.004 0.005749999999999999 ) // 95
( 0.0019999999999999974 -0.003464101615137756 0.005749999999999999 ) // 96
( 0.0034641016151377535 -0.0020000000000000018 0.005749999999999999 ) // 97

//circles

//circle 0
( 0.010499999999999999 0.0 0.005749999999999999 ) //98
( 0.009093266739736606 0.005249999999999999 0.005749999999999999 ) //99
( 0.00525 0.009093266739736604 0.005749999999999999 ) //100
( 6.429395695523604e-19 0.010499999999999999 0.005749999999999999 ) //101
( -0.005249999999999998 0.009093266739736606 0.005749999999999999 ) //102
( -0.009093266739736603 0.005250000000000003 0.005749999999999999 ) //103
( -0.010499999999999999 1.2858791391047207e-18 0.005749999999999999 ) //104
( -0.009093266739736606 -0.005249999999999997 0.005749999999999999 ) //105
( -0.005250000000000004 -0.009093266739736603 0.005749999999999999 ) //106
( -1.928818708657081e-18 -0.010499999999999999 0.005749999999999999 ) //107
( 0.0052499999999999925 -0.00909326673973661 0.005749999999999999 ) //108
( 0.009093266739736603 -0.005250000000000004 0.005749999999999999 ) //109

//circle 1
( 0.0135 0.0 0.005749999999999999 ) //110
( 0.011691342951089922 0.006749999999999999 0.005749999999999999 ) //111
( 0.006750000000000002 0.01169134295108992 0.005749999999999999 ) //112
( 8.266365894244634e-19 0.0135 0.005749999999999999 ) //113
( -0.006749999999999997 0.011691342951089922 0.005749999999999999 ) //114
( -0.011691342951089919 0.006750000000000004 0.005749999999999999 ) //115
( -0.0135 1.6532731788489268e-18 0.005749999999999999 ) //116
( -0.011691342951089924 -0.006749999999999997 0.005749999999999999 ) //117
( -0.006750000000000006 -0.011691342951089917 0.005749999999999999 ) //118
( -2.47990976827339e-18 -0.0135 0.005749999999999999 ) //119
( 0.006749999999999991 -0.011691342951089928 0.005749999999999999 ) //120
( 0.011691342951089917 -0.006750000000000006 0.005749999999999999 ) //121

//circle 2
( 0.02 0.0 0.005749999999999999 ) //122
( 0.017320508075688773 0.009999999999999998 0.005749999999999999 ) //123
( 0.010000000000000002 0.017320508075688773 0.005749999999999999 ) //124
( 1.2246467991473532e-18 0.02 0.005749999999999999 ) //125
( -0.009999999999999997 0.017320508075688773 0.005749999999999999 ) //126
( -0.01732050807568877 0.010000000000000007 0.005749999999999999 ) //127
( -0.02 2.4492935982947064e-18 0.005749999999999999 ) //128
( -0.017320508075688777 -0.009999999999999995 0.005749999999999999 ) //129
( -0.010000000000000009 -0.01732050807568877 0.005749999999999999 ) //130
( -3.673940397442059e-18 -0.02 0.005749999999999999 ) //131
( 0.009999999999999986 -0.01732050807568878 0.005749999999999999 ) //132
( 0.01732050807568877 -0.010000000000000009 0.005749999999999999 ) //133

//circle 3
( 0.0305 0.0 0.005749999999999999 ) //134
( 0.02641377481542538 0.015249999999999998 0.005749999999999999 ) //135
( 0.015250000000000003 0.026413774815425378 0.005749999999999999 ) //136
( 1.8675863686997137e-18 0.0305 0.005749999999999999 ) //137
( -0.015249999999999994 0.02641377481542538 0.005749999999999999 ) //138
( -0.026413774815425374 0.01525000000000001 0.005749999999999999 ) //139
( -0.0305 3.7351727373994275e-18 0.005749999999999999 ) //140
( -0.026413774815425384 -0.015249999999999993 0.005749999999999999 ) //141
( -0.015250000000000014 -0.02641377481542537 0.005749999999999999 ) //142
( -5.60275910609914e-18 -0.0305 0.005749999999999999 ) //143
( 0.015249999999999979 -0.02641377481542539 0.005749999999999999 ) //144
( 0.02641377481542537 -0.015250000000000014 0.005749999999999999 ) //145

//circle 4
( 0.041 0.0 0.005749999999999999 ) //146
( 0.03550704155516199 0.020499999999999997 0.005749999999999999 ) //147
( 0.020500000000000004 0.03550704155516198 0.005749999999999999 ) //148
( 2.5105259382520743e-18 0.041 0.005749999999999999 ) //149
( -0.020499999999999994 0.03550704155516199 0.005749999999999999 ) //150
( -0.03550704155516198 0.020500000000000015 0.005749999999999999 ) //151
( -0.041 5.0210518765041486e-18 0.005749999999999999 ) //152
( -0.035507041555161996 -0.02049999999999999 0.005749999999999999 ) //153
( -0.020500000000000018 -0.035507041555161975 0.005749999999999999 ) //154
( -7.531577814756222e-18 -0.041 0.005749999999999999 ) //155
( 0.020499999999999973 -0.035507041555162 0.005749999999999999 ) //156
( 0.035507041555161975 -0.020500000000000018 0.005749999999999999 ) //157

//circle 5
( 0.0425 0.0 0.005749999999999999 ) //158
( 0.036806079660838646 0.021249999999999998 0.005749999999999999 ) //159
( 0.021250000000000005 0.036806079660838646 0.005749999999999999 ) //160
( 2.6023744481881256e-18 0.0425 0.005749999999999999 ) //161
( -0.021249999999999995 0.036806079660838646 0.005749999999999999 ) //162
( -0.03680607966083864 0.021250000000000015 0.005749999999999999 ) //163
( -0.0425 5.204748896376251e-18 0.005749999999999999 ) //164
( -0.03680607966083865 -0.02124999999999999 0.005749999999999999 ) //165
( -0.02125000000000002 -0.03680607966083863 0.005749999999999999 ) //166
( -7.807123344564376e-18 -0.0425 0.005749999999999999 ) //167
( 0.021249999999999974 -0.03680607966083866 0.005749999999999999 ) //168
( 0.03680607966083863 -0.02125000000000002 0.005749999999999999 ) //169

//section 2

//center
(0.0 0.0 0.009999999999999998) // 170

//polygon
( 0.004 0.0 0.009999999999999998 ) // 171
( 0.0034641016151377548 0.0019999999999999996 0.009999999999999998 ) // 172
( 0.0020000000000000005 0.0034641016151377543 0.009999999999999998 ) // 173
( 2.4492935982947063e-19 0.004 0.009999999999999998 ) // 174
( -0.001999999999999999 0.0034641016151377548 0.009999999999999998 ) // 175
( -0.003464101615137754 0.0020000000000000013 0.009999999999999998 ) // 176
( -0.004 4.898587196589413e-19 0.009999999999999998 ) // 177
( -0.003464101615137755 -0.001999999999999999 0.009999999999999998 ) // 178
( -0.0020000000000000018 -0.0034641016151377535 0.009999999999999998 ) // 179
( -7.347880794884119e-19 -0.004 0.009999999999999998 ) // 180
( 0.0019999999999999974 -0.003464101615137756 0.009999999999999998 ) // 181
( 0.0034641016151377535 -0.0020000000000000018 0.009999999999999998 ) // 182

//circles

//circle 0
( 0.010499999999999999 0.0 0.009999999999999998 ) //183
( 0.009093266739736606 0.005249999999999999 0.009999999999999998 ) //184
( 0.00525 0.009093266739736604 0.009999999999999998 ) //185
( 6.429395695523604e-19 0.010499999999999999 0.009999999999999998 ) //186
( -0.005249999999999998 0.009093266739736606 0.009999999999999998 ) //187
( -0.009093266739736603 0.005250000000000003 0.009999999999999998 ) //188
( -0.010499999999999999 1.2858791391047207e-18 0.009999999999999998 ) //189
( -0.009093266739736606 -0.005249999999999997 0.009999999999999998 ) //190
( -0.005250000000000004 -0.009093266739736603 0.009999999999999998 ) //191
( -1.928818708657081e-18 -0.010499999999999999 0.009999999999999998 ) //192
( 0.0052499999999999925 -0.00909326673973661 0.009999999999999998 ) //193
( 0.009093266739736603 -0.005250000000000004 0.009999999999999998 ) //194

//circle 1
( 0.0135 0.0 0.009999999999999998 ) //195
( 0.011691342951089922 0.006749999999999999 0.009999999999999998 ) //196
( 0.006750000000000002 0.01169134295108992 0.009999999999999998 ) //197
( 8.266365894244634e-19 0.0135 0.009999999999999998 ) //198
( -0.006749999999999997 0.011691342951089922 0.009999999999999998 ) //199
( -0.011691342951089919 0.006750000000000004 0.009999999999999998 ) //200
( -0.0135 1.6532731788489268e-18 0.009999999999999998 ) //201
( -0.011691342951089924 -0.006749999999999997 0.009999999999999998 ) //202
( -0.006750000000000006 -0.011691342951089917 0.009999999999999998 ) //203
( -2.47990976827339e-18 -0.0135 0.009999999999999998 ) //204
( 0.006749999999999991 -0.011691342951089928 0.009999999999999998 ) //205
( 0.011691342951089917 -0.006750000000000006 0.009999999999999998 ) //206

//circle 2
( 0.02 0.0 0.009999999999999998 ) //207
( 0.017320508075688773 0.009999999999999998 0.009999999999999998 ) //208
( 0.010000000000000002 0.017320508075688773 0.009999999999999998 ) //209
( 1.2246467991473532e-18 0.02 0.009999999999999998 ) //210
( -0.009999999999999997 0.017320508075688773 0.009999999999999998 ) //211
( -0.01732050807568877 0.010000000000000007 0.009999999999999998 ) //212
( -0.02 2.4492935982947064e-18 0.009999999999999998 ) //213
( -0.017320508075688777 -0.009999999999999995 0.009999999999999998 ) //214
( -0.010000000000000009 -0.01732050807568877 0.009999999999999998 ) //215
( -3.673940397442059e-18 -0.02 0.009999999999999998 ) //216
( 0.009999999999999986 -0.01732050807568878 0.009999999999999998 ) //217
( 0.01732050807568877 -0.010000000000000009 0.009999999999999998 ) //218

//circle 3
( 0.0305 0.0 0.009999999999999998 ) //219
( 0.02641377481542538 0.015249999999999998 0.009999999999999998 ) //220
( 0.015250000000000003 0.026413774815425378 0.009999999999999998 ) //221
( 1.8675863686997137e-18 0.0305 0.009999999999999998 ) //222
( -0.015249999999999994 0.02641377481542538 0.009999999999999998 ) //223
( -0.026413774815425374 0.01525000000000001 0.009999999999999998 ) //224
( -0.0305 3.7351727373994275e-18 0.009999999999999998 ) //225
( -0.026413774815425384 -0.015249999999999993 0.009999999999999998 ) //226
( -0.015250000000000014 -0.02641377481542537 0.009999999999999998 ) //227
( -5.60275910609914e-18 -0.0305 0.009999999999999998 ) //228
( 0.015249999999999979 -0.02641377481542539 0.009999999999999998 ) //229
( 0.02641377481542537 -0.015250000000000014 0.009999999999999998 ) //230

//circle 4
( 0.041 0.0 0.009999999999999998 ) //231
( 0.03550704155516199 0.020499999999999997 0.009999999999999998 ) //232
( 0.020500000000000004 0.03550704155516198 0.009999999999999998 ) //233
( 2.5105259382520743e-18 0.041 0.009999999999999998 ) //234
( -0.020499999999999994 0.03550704155516199 0.009999999999999998 ) //235
( -0.03550704155516198 0.020500000000000015 0.009999999999999998 ) //236
( -0.041 5.0210518765041486e-18 0.009999999999999998 ) //237
( -0.035507041555161996 -0.02049999999999999 0.009999999999999998 ) //238
( -0.020500000000000018 -0.035507041555161975 0.009999999999999998 ) //239
( -7.531577814756222e-18 -0.041 0.009999999999999998 ) //240
( 0.020499999999999973 -0.035507041555162 0.009999999999999998 ) //241
( 0.035507041555161975 -0.020500000000000018 0.009999999999999998 ) //242

//circle 5
( 0.0425 0.0 0.009999999999999998 ) //243
( 0.036806079660838646 0.021249999999999998 0.009999999999999998 ) //244
( 0.021250000000000005 0.036806079660838646 0.009999999999999998 ) //245
( 2.6023744481881256e-18 0.0425 0.009999999999999998 ) //246
( -0.021249999999999995 0.036806079660838646 0.009999999999999998 ) //247
( -0.03680607966083864 0.021250000000000015 0.009999999999999998 ) //248
( -0.0425 5.204748896376251e-18 0.009999999999999998 ) //249
( -0.03680607966083865 -0.02124999999999999 0.009999999999999998 ) //250
( -0.02125000000000002 -0.03680607966083863 0.009999999999999998 ) //251
( -7.807123344564376e-18 -0.0425 0.009999999999999998 ) //252
( 0.021249999999999974 -0.03680607966083866 0.009999999999999998 ) //253
( 0.03680607966083863 -0.02125000000000002 0.009999999999999998 ) //254

//section 3

//center
(0.0 0.0 0.012) // 255

//polygon
( 0.004 0.0 0.012 ) // 256
( 0.0034641016151377548 0.0019999999999999996 0.012 ) // 257
( 0.0020000000000000005 0.0034641016151377543 0.012 ) // 258
( 2.4492935982947063e-19 0.004 0.012 ) // 259
( -0.001999999999999999 0.0034641016151377548 0.012 ) // 260
( -0.003464101615137754 0.0020000000000000013 0.012 ) // 261
( -0.004 4.898587196589413e-19 0.012 ) // 262
( -0.003464101615137755 -0.001999999999999999 0.012 ) // 263
( -0.0020000000000000018 -0.0034641016151377535 0.012 ) // 264
( -7.347880794884119e-19 -0.004 0.012 ) // 265
( 0.0019999999999999974 -0.003464101615137756 0.012 ) // 266
( 0.0034641016151377535 -0.0020000000000000018 0.012 ) // 267

//circles

//circle 0
( 0.010499999999999999 0.0 0.012 ) //268
( 0.009093266739736606 0.005249999999999999 0.012 ) //269
( 0.00525 0.009093266739736604 0.012 ) //270
( 6.429395695523604e-19 0.010499999999999999 0.012 ) //271
( -0.005249999999999998 0.009093266739736606 0.012 ) //272
( -0.009093266739736603 0.005250000000000003 0.012 ) //273
( -0.010499999999999999 1.2858791391047207e-18 0.012 ) //274
( -0.009093266739736606 -0.005249999999999997 0.012 ) //275
( -0.005250000000000004 -0.009093266739736603 0.012 ) //276
( -1.928818708657081e-18 -0.010499999999999999 0.012 ) //277
( 0.0052499999999999925 -0.00909326673973661 0.012 ) //278
( 0.009093266739736603 -0.005250000000000004 0.012 ) //279

//circle 1
( 0.0135 0.0 0.012 ) //280
( 0.011691342951089922 0.006749999999999999 0.012 ) //281
( 0.006750000000000002 0.01169134295108992 0.012 ) //282
( 8.266365894244634e-19 0.0135 0.012 ) //283
( -0.006749999999999997 0.011691342951089922 0.012 ) //284
( -0.011691342951089919 0.006750000000000004 0.012 ) //285
( -0.0135 1.6532731788489268e-18 0.012 ) //286
( -0.011691342951089924 -0.006749999999999997 0.012 ) //287
( -0.006750000000000006 -0.011691342951089917 0.012 ) //288
( -2.47990976827339e-18 -0.0135 0.012 ) //289
( 0.006749999999999991 -0.011691342951089928 0.012 ) //290
( 0.011691342951089917 -0.006750000000000006 0.012 ) //291

//circle 2
( 0.02 0.0 0.012 ) //292
( 0.017320508075688773 0.009999999999999998 0.012 ) //293
( 0.010000000000000002 0.017320508075688773 0.012 ) //294
( 1.2246467991473532e-18 0.02 0.012 ) //295
( -0.009999999999999997 0.017320508075688773 0.012 ) //296
( -0.01732050807568877 0.010000000000000007 0.012 ) //297
( -0.02 2.4492935982947064e-18 0.012 ) //298
( -0.017320508075688777 -0.009999999999999995 0.012 ) //299
( -0.010000000000000009 -0.01732050807568877 0.012 ) //300
( -3.673940397442059e-18 -0.02 0.012 ) //301
( 0.009999999999999986 -0.01732050807568878 0.012 ) //302
( 0.01732050807568877 -0.010000000000000009 0.012 ) //303

//circle 3
( 0.0305 0.0 0.012 ) //304
( 0.02641377481542538 0.015249999999999998 0.012 ) //305
( 0.015250000000000003 0.026413774815425378 0.012 ) //306
( 1.8675863686997137e-18 0.0305 0.012 ) //307
( -0.015249999999999994 0.02641377481542538 0.012 ) //308
( -0.026413774815425374 0.01525000000000001 0.012 ) //309
( -0.0305 3.7351727373994275e-18 0.012 ) //310
( -0.026413774815425384 -0.015249999999999993 0.012 ) //311
( -0.015250000000000014 -0.02641377481542537 0.012 ) //312
( -5.60275910609914e-18 -0.0305 0.012 ) //313
( 0.015249999999999979 -0.02641377481542539 0.012 ) //314
( 0.02641377481542537 -0.015250000000000014 0.012 ) //315

//circle 4
( 0.041 0.0 0.012 ) //316
( 0.03550704155516199 0.020499999999999997 0.012 ) //317
( 0.020500000000000004 0.03550704155516198 0.012 ) //318
( 2.5105259382520743e-18 0.041 0.012 ) //319
( -0.020499999999999994 0.03550704155516199 0.012 ) //320
( -0.03550704155516198 0.020500000000000015 0.012 ) //321
( -0.041 5.0210518765041486e-18 0.012 ) //322
( -0.035507041555161996 -0.02049999999999999 0.012 ) //323
( -0.020500000000000018 -0.035507041555161975 0.012 ) //324
( -7.531577814756222e-18 -0.041 0.012 ) //325
( 0.020499999999999973 -0.035507041555162 0.012 ) //326
( 0.035507041555161975 -0.020500000000000018 0.012 ) //327

//circle 5
( 0.0425 0.0 0.012 ) //328
( 0.036806079660838646 0.021249999999999998 0.012 ) //329
( 0.021250000000000005 0.036806079660838646 0.012 ) //330
( 2.6023744481881256e-18 0.0425 0.012 ) //331
( -0.021249999999999995 0.036806079660838646 0.012 ) //332
( -0.03680607966083864 0.021250000000000015 0.012 ) //333
( -0.0425 5.204748896376251e-18 0.012 ) //334
( -0.03680607966083865 -0.02124999999999999 0.012 ) //335
( -0.02125000000000002 -0.03680607966083863 0.012 ) //336
( -7.807123344564376e-18 -0.0425 0.012 ) //337
( 0.021249999999999974 -0.03680607966083866 0.012 ) //338
( 0.03680607966083863 -0.02125000000000002 0.012 ) //339

//section 4

//center
(0.0 0.0 0.01625) // 340

//polygon
( 0.004 0.0 0.01625 ) // 341
( 0.0034641016151377548 0.0019999999999999996 0.01625 ) // 342
( 0.0020000000000000005 0.0034641016151377543 0.01625 ) // 343
( 2.4492935982947063e-19 0.004 0.01625 ) // 344
( -0.001999999999999999 0.0034641016151377548 0.01625 ) // 345
( -0.003464101615137754 0.0020000000000000013 0.01625 ) // 346
( -0.004 4.898587196589413e-19 0.01625 ) // 347
( -0.003464101615137755 -0.001999999999999999 0.01625 ) // 348
( -0.0020000000000000018 -0.0034641016151377535 0.01625 ) // 349
( -7.347880794884119e-19 -0.004 0.01625 ) // 350
( 0.0019999999999999974 -0.003464101615137756 0.01625 ) // 351
( 0.0034641016151377535 -0.0020000000000000018 0.01625 ) // 352

//circles

//circle 0
( 0.010499999999999999 0.0 0.01625 ) //353
( 0.009093266739736606 0.005249999999999999 0.01625 ) //354
( 0.00525 0.009093266739736604 0.01625 ) //355
( 6.429395695523604e-19 0.010499999999999999 0.01625 ) //356
( -0.005249999999999998 0.009093266739736606 0.01625 ) //357
( -0.009093266739736603 0.005250000000000003 0.01625 ) //358
( -0.010499999999999999 1.2858791391047207e-18 0.01625 ) //359
( -0.009093266739736606 -0.005249999999999997 0.01625 ) //360
( -0.005250000000000004 -0.009093266739736603 0.01625 ) //361
( -1.928818708657081e-18 -0.010499999999999999 0.01625 ) //362
( 0.0052499999999999925 -0.00909326673973661 0.01625 ) //363
( 0.009093266739736603 -0.005250000000000004 0.01625 ) //364

//circle 1
( 0.0135 0.0 0.01625 ) //365
( 0.011691342951089922 0.006749999999999999 0.01625 ) //366
( 0.006750000000000002 0.01169134295108992 0.01625 ) //367
( 8.266365894244634e-19 0.0135 0.01625 ) //368
( -0.006749999999999997 0.011691342951089922 0.01625 ) //369
( -0.011691342951089919 0.006750000000000004 0.01625 ) //370
( -0.0135 1.6532731788489268e-18 0.01625 ) //371
( -0.011691342951089924 -0.006749999999999997 0.01625 ) //372
( -0.006750000000000006 -0.011691342951089917 0.01625 ) //373
( -2.47990976827339e-18 -0.0135 0.01625 ) //374
( 0.006749999999999991 -0.011691342951089928 0.01625 ) //375
( 0.011691342951089917 -0.006750000000000006 0.01625 ) //376

//circle 2
( 0.02 0.0 0.01625 ) //377
( 0.017320508075688773 0.009999999999999998 0.01625 ) //378
( 0.010000000000000002 0.017320508075688773 0.01625 ) //379
( 1.2246467991473532e-18 0.02 0.01625 ) //380
( -0.009999999999999997 0.017320508075688773 0.01625 ) //381
( -0.01732050807568877 0.010000000000000007 0.01625 ) //382
( -0.02 2.4492935982947064e-18 0.01625 ) //383
( -0.017320508075688777 -0.009999999999999995 0.01625 ) //384
( -0.010000000000000009 -0.01732050807568877 0.01625 ) //385
( -3.673940397442059e-18 -0.02 0.01625 ) //386
( 0.009999999999999986 -0.01732050807568878 0.01625 ) //387
( 0.01732050807568877 -0.010000000000000009 0.01625 ) //388

//circle 3
( 0.0305 0.0 0.01625 ) //389
( 0.02641377481542538 0.015249999999999998 0.01625 ) //390
( 0.015250000000000003 0.026413774815425378 0.01625 ) //391
( 1.8675863686997137e-18 0.0305 0.01625 ) //392
( -0.015249999999999994 0.02641377481542538 0.01625 ) //393
( -0.026413774815425374 0.01525000000000001 0.01625 ) //394
( -0.0305 3.7351727373994275e-18 0.01625 ) //395
( -0.026413774815425384 -0.015249999999999993 0.01625 ) //396
( -0.015250000000000014 -0.02641377481542537 0.01625 ) //397
( -5.60275910609914e-18 -0.0305 0.01625 ) //398
( 0.015249999999999979 -0.02641377481542539 0.01625 ) //399
( 0.02641377481542537 -0.015250000000000014 0.01625 ) //400

//circle 4
( 0.041 0.0 0.01625 ) //401
( 0.03550704155516199 0.020499999999999997 0.01625 ) //402
( 0.020500000000000004 0.03550704155516198 0.01625 ) //403
( 2.5105259382520743e-18 0.041 0.01625 ) //404
( -0.020499999999999994 0.03550704155516199 0.01625 ) //405
( -0.03550704155516198 0.020500000000000015 0.01625 ) //406
( -0.041 5.0210518765041486e-18 0.01625 ) //407
( -0.035507041555161996 -0.02049999999999999 0.01625 ) //408
( -0.020500000000000018 -0.035507041555161975 0.01625 ) //409
( -7.531577814756222e-18 -0.041 0.01625 ) //410
( 0.020499999999999973 -0.035507041555162 0.01625 ) //411
( 0.035507041555161975 -0.020500000000000018 0.01625 ) //412

//circle 5
( 0.0425 0.0 0.01625 ) //413
( 0.036806079660838646 0.021249999999999998 0.01625 ) //414
( 0.021250000000000005 0.036806079660838646 0.01625 ) //415
( 2.6023744481881256e-18 0.0425 0.01625 ) //416
( -0.021249999999999995 0.036806079660838646 0.01625 ) //417
( -0.03680607966083864 0.021250000000000015 0.01625 ) //418
( -0.0425 5.204748896376251e-18 0.01625 ) //419
( -0.03680607966083865 -0.02124999999999999 0.01625 ) //420
( -0.02125000000000002 -0.03680607966083863 0.01625 ) //421
( -7.807123344564376e-18 -0.0425 0.01625 ) //422
( 0.021249999999999974 -0.03680607966083866 0.01625 ) //423
( 0.03680607966083863 -0.02125000000000002 0.01625 ) //424

//section 5

//center
(0.0 0.0 0.035750000000000004) // 425

//polygon
( 0.004 0.0 0.035750000000000004 ) // 426
( 0.0034641016151377548 0.0019999999999999996 0.035750000000000004 ) // 427
( 0.0020000000000000005 0.0034641016151377543 0.035750000000000004 ) // 428
( 2.4492935982947063e-19 0.004 0.035750000000000004 ) // 429
( -0.001999999999999999 0.0034641016151377548 0.035750000000000004 ) // 430
( -0.003464101615137754 0.0020000000000000013 0.035750000000000004 ) // 431
( -0.004 4.898587196589413e-19 0.035750000000000004 ) // 432
( -0.003464101615137755 -0.001999999999999999 0.035750000000000004 ) // 433
( -0.0020000000000000018 -0.0034641016151377535 0.035750000000000004 ) // 434
( -7.347880794884119e-19 -0.004 0.035750000000000004 ) // 435
( 0.0019999999999999974 -0.003464101615137756 0.035750000000000004 ) // 436
( 0.0034641016151377535 -0.0020000000000000018 0.035750000000000004 ) // 437

//circles

//circle 0
( 0.010499999999999999 0.0 0.035750000000000004 ) //438
( 0.009093266739736606 0.005249999999999999 0.035750000000000004 ) //439
( 0.00525 0.009093266739736604 0.035750000000000004 ) //440
( 6.429395695523604e-19 0.010499999999999999 0.035750000000000004 ) //441
( -0.005249999999999998 0.009093266739736606 0.035750000000000004 ) //442
( -0.009093266739736603 0.005250000000000003 0.035750000000000004 ) //443
( -0.010499999999999999 1.2858791391047207e-18 0.035750000000000004 ) //444
( -0.009093266739736606 -0.005249999999999997 0.035750000000000004 ) //445
( -0.005250000000000004 -0.009093266739736603 0.035750000000000004 ) //446
( -1.928818708657081e-18 -0.010499999999999999 0.035750000000000004 ) //447
( 0.0052499999999999925 -0.00909326673973661 0.035750000000000004 ) //448
( 0.009093266739736603 -0.005250000000000004 0.035750000000000004 ) //449

//circle 1
( 0.0135 0.0 0.035750000000000004 ) //450