/*--------------------------------*- C++ -*----------------------------------*\
| =========                 |                                                 |
| \      /  F ield         | OpenFOAM: The Open Source CFD Toolbox           |
|  \    /   O peration     | Version:  5                                     |
|   \  /    A nd           | Web:      www.OpenFOAM.org                      |
|    \/     M anipulation  |                                                 |
\*---------------------------------------------------------------------------*/
FoamFile
{
	version     2.0;
	format      ascii;
	class       dictionary;
	object      blockMeshDict;
}

// * * * * * * * * * * * * * * * * * * * * * * * * * * * * * * * * * * * * * //

convertToMeters 1.0;

// * * * * * * * * * * * * * * * * * * * * * * * * * * * * * * * * * * * * * //


// * * * * * * * * * * * * * * * * * * * * * * * * * * * * * * * * * * * * * //
vertices
(

//section 0

//center
(0.0 0.0 0.0) // 0

//polygon
( 0.004 0.0 0.0 ) // 1
( 0.0034641016151377548 0.0019999999999999996 0.0 ) // 2
( 0.0020000000000000005 0.0034641016151377543 0.0 ) // 3
( 2.4492935982947063e-19 0.004 0.0 ) // 4
( -0.001999999999999999 0.003464101615137755 0.0 ) // 5
( -0.003464101615137754 0.0020000000000000013 0.0 ) // 6
( -0.004 4.898587196589413e-19 0.0 ) // 7
( -0.003464101615137755 -0.001999999999999999 0.0 ) // 8
( -0.0020000000000000018 -0.0034641016151377535 0.0 ) // 9
( -7.347880794884119e-19 -0.004 0.0 ) // 10
( 0.001999999999999997 -0.003464101615137756 0.0 ) // 11
( 0.0034641016151377535 -0.0020000000000000018 0.0 ) // 12

//circles

//circle 0
( 0.01025 0.0 0.0 ) //13
( 0.008876760388790497 0.005124999999999999 0.0 ) //14
( 0.005125000000000001 0.008876760388790495 0.0 ) //15
( 6.276314845630186e-19 0.01025 0.0 ) //16
( -0.005124999999999998 0.008876760388790499 0.0 ) //17
( -0.008876760388790495 0.005125000000000004 0.0 ) //18
( -0.01025 1.2552629691260371e-18 0.0 ) //19
( -0.008876760388790499 -0.005124999999999998 0.0 ) //20
( -0.0051250000000000046 -0.008876760388790494 0.0 ) //21
( -1.8828944536890556e-18 -0.01025 0.0 ) //22
( 0.005124999999999992 -0.0088767603887905 0.0 ) //23
( 0.008876760388790494 -0.0051250000000000046 0.0 ) //24

//circle 1
( 0.0125 0.0 0.0 ) //25
( 0.010825317547305485 0.0062499999999999995 0.0 ) //26
( 0.006250000000000002 0.010825317547305483 0.0 ) //27
( 7.654042494670958e-19 0.0125 0.0 ) //28
( -0.006249999999999998 0.010825317547305487 0.0 ) //29
( -0.010825317547305481 0.006250000000000005 0.0 ) //30
( -0.0125 1.5308084989341916e-18 0.0 ) //31
( -0.010825317547305487 -0.006249999999999998 0.0 ) //32
( -0.0062500000000000056 -0.01082531754730548 0.0 ) //33
( -2.296212748401287e-18 -0.0125 0.0 ) //34
( 0.006249999999999992 -0.010825317547305488 0.0 ) //35
( 0.01082531754730548 -0.0062500000000000056 0.0 ) //36

//circle 2
( 0.02 0.0 0.0 ) //37
( 0.017320508075688773 0.009999999999999998 0.0 ) //38
( 0.010000000000000002 0.017320508075688773 0.0 ) //39
( 1.2246467991473532e-18 0.02 0.0 ) //40
( -0.009999999999999995 0.017320508075688777 0.0 ) //41
( -0.01732050807568877 0.010000000000000007 0.0 ) //42
( -0.02 2.4492935982947064e-18 0.0 ) //43
( -0.017320508075688777 -0.009999999999999995 0.0 ) //44
( -0.010000000000000009 -0.01732050807568877 0.0 ) //45
( -3.673940397442059e-18 -0.02 0.0 ) //46
( 0.009999999999999986 -0.01732050807568878 0.0 ) //47
( 0.01732050807568877 -0.010000000000000009 0.0 ) //48

//circle 3
( 0.027 0.0 0.0 ) //49
( 0.023382685902179845 0.013499999999999998 0.0 ) //50
( 0.013500000000000003 0.02338268590217984 0.0 ) //51
( 1.6532731788489268e-18 0.027 0.0 ) //52
( -0.013499999999999995 0.02338268590217985 0.0 ) //53
( -0.023382685902179838 0.013500000000000009 0.0 ) //54
( -0.027 3.3065463576978537e-18 0.0 ) //55
( -0.02338268590217985 -0.013499999999999995 0.0 ) //56
( -0.013500000000000012 -0.023382685902179835 0.0 ) //57
( -4.95981953654678e-18 -0.027 0.0 ) //58
( 0.01349999999999998 -0.023382685902179855 0.0 ) //59
( 0.023382685902179835 -0.013500000000000012 0.0 ) //60

//circle 4
( 0.034 0.0 0.0 ) //61
( 0.029444863728670917 0.016999999999999998 0.0 ) //62
( 0.017000000000000005 0.029444863728670913 0.0 ) //63
( 2.0818995585505005e-18 0.034 0.0 ) //64
( -0.016999999999999994 0.02944486372867092 0.0 ) //65
( -0.02944486372867091 0.01700000000000001 0.0 ) //66
( -0.034 4.163799117101001e-18 0.0 ) //67
( -0.02944486372867092 -0.016999999999999994 0.0 ) //68
( -0.017000000000000015 -0.029444863728670907 0.0 ) //69
( -6.2456986756515014e-18 -0.034 0.0 ) //70
( 0.016999999999999977 -0.02944486372867093 0.0 ) //71
( 0.029444863728670907 -0.017000000000000015 0.0 ) //72

//circle 5
( 0.0425 0.0 0.0 ) //73
( 0.036806079660838646 0.021249999999999998 0.0 ) //74
( 0.021250000000000005 0.036806079660838646 0.0 ) //75
( 2.6023744481881256e-18 0.0425 0.0 ) //76
( -0.02124999999999999 0.03680607966083865 0.0 ) //77
( -0.03680607966083864 0.021250000000000015 0.0 ) //78
( -0.0425 5.204748896376251e-18 0.0 ) //79
( -0.03680607966083865 -0.02124999999999999 0.0 ) //80
( -0.02125000000000002 -0.03680607966083863 0.0 ) //81
( -7.807123344564376e-18 -0.0425 0.0 ) //82
( 0.02124999999999997 -0.03680607966083866 0.0 ) //83
( 0.03680607966083863 -0.02125000000000002 0.0 ) //84

//section 1

//center
(0.0 0.0 0.0205) // 85

//polygon
( 0.004 0.0 0.0205 ) // 86
( 0.0034641016151377548 0.0019999999999999996 0.0205 ) // 87
( 0.0020000000000000005 0.0034641016151377543 0.0205 ) // 88
( 2.4492935982947063e-19 0.004 0.0205 ) // 89
( -0.001999999999999999 0.003464101615137755 0.0205 ) // 90
( -0.003464101615137754 0.0020000000000000013 0.0205 ) // 91
( -0.004 4.898587196589413e-19 0.0205 ) // 92
( -0.003464101615137755 -0.001999999999999999 0.0205 ) // 93
( -0.0020000000000000018 -0.0034641016151377535 0.0205 ) // 94
( -7.347880794884119e-19 -0.004 0.0205 ) // 95
( 0.001999999999999997 -0.003464101615137756 0.0205 ) // 96
( 0.0034641016151377535 -0.0020000000000000018 0.0205 ) // 97

//circles

//circle 0
( 0.01025 0.0 0.0205 ) //98
( 0.008876760388790497 0.005124999999999999 0.0205 ) //99
( 0.005125000000000001 0.008876760388790495 0.0205 ) //100
( 6.276314845630186e-19 0.01025 0.0205 ) //101
( -0.005124999999999998 0.008876760388790499 0.0205 ) //102
( -0.008876760388790495 0.005125000000000004 0.0205 ) //103
( -0.01025 1.2552629691260371e-18 0.0205 ) //104
( -0.008876760388790499 -0.005124999999999998 0.0205 ) //105
( -0.0051250000000000046 -0.008876760388790494 0.0205 ) //106
( -1.8828944536890556e-18 -0.01025 0.0205 ) //107
( 0.005124999999999992 -0.0088767603887905 0.0205 ) //108
( 0.008876760388790494 -0.0051250000000000046 0.0205 ) //109

//circle 1
( 0.0125 0.0 0.0205 ) //110
( 0.010825317547305485 0.0062499999999999995 0.0205 ) //111
( 0.006250000000000002 0.010825317547305483 0.0205 ) //112
( 7.654042494670958e-19 0.0125 0.0205 ) //113
( -0.006249999999999998 0.010825317547305487 0.0205 ) //114
( -0.010825317547305481 0.006250000000000005 0.0205 ) //115
( -0.0125 1.5308084989341916e-18 0.0205 ) //116
( -0.010825317547305487 -0.006249999999999998 0.0205 ) //117
( -0.0062500000000000056 -0.01082531754730548 0.0205 ) //118
( -2.296212748401287e-18 -0.0125 0.0205 ) //119
( 0.006249999999999992 -0.010825317547305488 0.0205 ) //120
( 0.01082531754730548 -0.0062500000000000056 0.0205 ) //121

//circle 2
( 0.02 0.0 0.0205 ) //122
( 0.017320508075688773 0.009999999999999998 0.0205 ) //123
( 0.010000000000000002 0.017320508075688773 0.0205 ) //124
( 1.2246467991473532e-18 0.02 0.0205 ) //125
( -0.009999999999999995 0.017320508075688777 0.0205 ) //126
( -0.01732050807568877 0.010000000000000007 0.0205 ) //127
( -0.02 2.4492935982947064e-18 0.0205 ) //128
( -0.017320508075688777 -0.009999999999999995 0.0205 ) //129
( -0.010000000000000009 -0.01732050807568877 0.0205 ) //130
( -3.673940397442059e-18 -0.02 0.0205 ) //131
( 0.009999999999999986 -0.01732050807568878 0.0205 ) //132
( 0.01732050807568877 -0.010000000000000009 0.0205 ) //133

//circle 3
( 0.027 0.0 0.0205 ) //134
( 0.023382685902179845 0.013499999999999998 0.0205 ) //135
( 0.013500000000000003 0.02338268590217984 0.0205 ) //136
( 1.6532731788489268e-18 0.027 0.0205 ) //137
( -0.013499999999999995 0.02338268590217985 0.0205 ) //138
( -0.023382685902179838 0.013500000000000009 0.0205 ) //139
( -0.027 3.3065463576978537e-18 0.0205 ) //140
( -0.02338268590217985 -0.013499999999999995 0.0205 ) //141
( -0.013500000000000012 -0.023382685902179835 0.0205 ) //142
( -4.95981953654678e-18 -0.027 0.0205 ) //143
( 0.01349999999999998 -0.023382685902179855 0.0205 ) //144
( 0.023382685902179835 -0.013500000000000012 0.0205 ) //145

//circle 4
( 0.034 0.0 0.0205 ) //146
( 0.029444863728670917 0.016999999999999998 0.0205 ) //147
( 0.017000000000000005 0.029444863728670913 0.0205 ) //148
( 2.0818995585505005e-18 0.034 0.0205 ) //149
( -0.016999999999999994 0.02944486372867092 0.0205 ) //150
( -0.02944486372867091 0.01700000000000001 0.0205 ) //151
( -0.034 4.163799117101001e-18 0.0205 ) //152
( -0.02944486372867092 -0.016999999999999994 0.0205 ) //153
( -0.017000000000000015 -0.029444863728670907 0.0205 ) //154
( -6.2456986756515014e-18 -0.034 0.0205 ) //155
( 0.016999999999999977 -0.02944486372867093 0.0205 ) //156
( 0.029444863728670907 -0.017000000000000015 0.0205 ) //157

//circle 5
( 0.0425 0.0 0.0205 ) //158
( 0.036806079660838646 0.021249999999999998 0.0205 ) //159
( 0.021250000000000005 0.036806079660838646 0.0205 ) //160
( 2.6023744481881256e-18 0.0425 0.0205 ) //161
( -0.02124999999999999 0.03680607966083865 0.0205 ) //162
( -0.03680607966083864 0.021250000000000015 0.0205 ) //163
( -0.0425 5.204748896376251e-18 0.0205 ) //164
( -0.03680607966083865 -0.02124999999999999 0.0205 ) //165
( -0.02125000000000002 -0.03680607966083863 0.0205 ) //166
( -7.807123344564376e-18 -0.0425 0.0205 ) //167
( 0.02124999999999997 -0.03680607966083866 0.0205 ) //168
( 0.03680607966083863 -0.02125000000000002 0.0205 ) //169

//section 2

//center
(0.0 0.0 0.0241) // 170

//polygon
( 0.004 0.0 0.0241 ) // 171
( 0.0034641016151377548 0.0019999999999999996 0.0241 ) // 172
( 0.0020000000000000005 0.0034641016151377543 0.0241 ) // 173
( 2.4492935982947063e-19 0.004 0.0241 ) // 174
( -0.001999999999999999 0.003464101615137755 0.0241 ) // 175
( -0.003464101615137754 0.0020000000000000013 0.0241 ) // 176
( -0.004 4.898587196589413e-19 0.0241 ) // 177
( -0.003464101615137755 -0.001999999999999999 0.0241 ) // 178
( -0.0020000000000000018 -0.0034641016151377535 0.0241 ) // 179
( -7.347880794884119e-19 -0.004 0.0241 ) // 180
( 0.001999999999999997 -0.003464101615137756 0.0241 ) // 181
( 0.0034641016151377535 -0.0020000000000000018 0.0241 ) // 182

//circles

//circle 0
( 0.01025 0.0 0.0241 ) //183
( 0.008876760388790497 0.005124999999999999 0.0241 ) //184
( 0.005125000000000001 0.008876760388790495 0.0241 ) //185
( 6.276314845630186e-19 0.01025 0.0241 ) //186
( -0.005124999999999998 0.008876760388790499 0.0241 ) //187
( -0.008876760388790495 0.005125000000000004 0.0241 ) //188
( -0.01025 1.2552629691260371e-18 0.0241 ) //189
( -0.008876760388790499 -0.005124999999999998 0.0241 ) //190
( -0.0051250000000000046 -0.008876760388790494 0.0241 ) //191
( -1.8828944536890556e-18 -0.01025 0.0241 ) //192
( 0.005124999999999992 -0.0088767603887905 0.0241 ) //193
( 0.008876760388790494 -0.0051250000000000046 0.0241 ) //194

//circle 1
( 0.0125 0.0 0.0241 ) //195
( 0.010825317547305485 0.0062499999999999995 0.0241 ) //196
( 0.006250000000000002 0.010825317547305483 0.0241 ) //197
( 7.654042494670958e-19 0.0125 0.0241 ) //198
( -0.006249999999999998 0.010825317547305487 0.0241 ) //199
( -0.010825317547305481 0.006250000000000005 0.0241 ) //200
( -0.0125 1.5308084989341916e-18 0.0241 ) //201
( -0.010825317547305487 -0.006249999999999998 0.0241 ) //202
( -0.0062500000000000056 -0.01082531754730548 0.0241 ) //203
( -2.296212748401287e-18 -0.0125 0.0241 ) //204
( 0.006249999999999992 -0.010825317547305488 0.0241 ) //205
( 0.01082531754730548 -0.0062500000000000056 0.0241 ) //206

//circle 2
( 0.02 0.0 0.0241 ) //207
( 0.017320508075688773 0.009999999999999998 0.0241 ) //208
( 0.010000000000000002 0.017320508075688773 0.0241 ) //209
( 1.2246467991473532e-18 0.02 0.0241 ) //210
( -0.009999999999999995 0.017320508075688777 0.0241 ) //211
( -0.01732050807568877 0.010000000000000007 0.0241 ) //212
( -0.02 2.4492935982947064e-18 0.0241 ) //213
( -0.017320508075688777 -0.009999999999999995 0.0241 ) //214
( -0.010000000000000009 -0.01732050807568877 0.0241 ) //215
( -3.673940397442059e-18 -0.02 0.0241 ) //216
( 0.009999999999999986 -0.01732050807568878 0.0241 ) //217
( 0.01732050807568877 -0.010000000000000009 0.0241 ) //218

//circle 3
( 0.027 0.0 0.0241 ) //219
( 0.023382685902179845 0.013499999999999998 0.0241 ) //220
( 0.013500000000000003 0.02338268590217984 0.0241 ) //221
( 1.6532731788489268e-18 0.027 0.0241 ) //222
( -0.013499999999999995 0.02338268590217985 0.0241 ) //223
( -0.023382685902179838 0.013500000000000009 0.0241 ) //224
( -0.027 3.3065463576978537e-18 0.0241 ) //225
( -0.02338268590217985 -0.013499999999999995 0.0241 ) //226
( -0.013500000000000012 -0.023382685902179835 0.0241 ) //227
( -4.95981953654678e-18 -0.027 0.0241 ) //228
( 0.01349999999999998 -0.023382685902179855 0.0241 ) //229
( 0.023382685902179835 -0.013500000000000012 0.0241 ) //230

//circle 4
( 0.034 0.0 0.0241 ) //231
( 0.029444863728670917 0.016999999999999998 0.0241 ) //232
( 0.017000000000000005 0.029444863728670913 0.0241 ) //233
( 2.0818995585505005e-18 0.034 0.0241 ) //234
( -0.016999999999999994 0.02944486372867092 0.0241 ) //235
( -0.02944486372867091 0.01700000000000001 0.0241 ) //236
( -0.034 4.163799117101001e-18 0.0241 ) //237
( -0.02944486372867092 -0.016999999999999994 0.0241 ) //238
( -0.017000000000000015 -0.029444863728670907 0.0241 ) //239
( -6.2456986756515014e-18 -0.034 0.0241 ) //240
( 0.016999999999999977 -0.02944486372867093 0.0241 ) //241
( 0.029444863728670907 -0.017000000000000015 0.0241 ) //242

//circle 5
( 0.0425 0.0 0.0241 ) //243
( 0.036806079660838646 0.021249999999999998 0.0241 ) //244
( 0.021250000000000005 0.036806079660838646 0.0241 ) //245
( 2.6023744481881256e-18 0.0425 0.0241 ) //246
( -0.02124999999999999 0.03680607966083865 0.0241 ) //247
( -0.03680607966083864 0.021250000000000015 0.0241 ) //248
( -0.0425 5.204748896376251e-18 0.0241 ) //249
( -0.03680607966083865 -0.02124999999999999 0.0241 ) //250
( -0.02125000000000002 -0.03680607966083863 0.0241 ) //251
( -7.807123344564376e-18 -0.0425 0.0241 ) //252
( 0.02124999999999997 -0.03680607966083866 0.0241 ) //253
( 0.03680607966083863 -0.02125000000000002 0.0241 ) //254

//section 3

//center
(0.0 0.0 0.025900000000000003) // 255

//polygon
( 0.004 0.0 0.025900000000000003 ) // 256
( 0.0034641016151377548 0.0019999999999999996 0.025900000000000003 ) // 257
( 0.0020000000000000005 0.0034641016151377543 0.025900000000000003 ) // 258
( 2.4492935982947063e-19 0.004 0.025900000000000003 ) // 259
( -0.001999999999999999 0.003464101615137755 0.025900000000000003 ) // 260
( -0.003464101615137754 0.0020000000000000013 0.025900000000000003 ) // 261
( -0.004 4.898587196589413e-19 0.025900000000000003 ) // 262
( -0.003464101615137755 -0.001999999999999999 0.025900000000000003 ) // 263
( -0.0020000000000000018 -0.0034641016151377535 0.025900000000000003 ) // 264
( -7.347880794884119e-19 -0.004 0.025900000000000003 ) // 265
( 0.001999999999999997 -0.003464101615137756 0.025900000000000003 ) // 266
( 0.0034641016151377535 -0.0020000000000000018 0.025900000000000003 ) // 267

//circles

//circle 0
( 0.01025 0.0 0.025900000000000003 ) //268
( 0.008876760388790497 0.005124999999999999 0.025900000000000003 ) //269
( 0.005125000000000001 0.008876760388790495 0.025900000000000003 ) //270
( 6.276314845630186e-19 0.01025 0.025900000000000003 ) //271
( -0.005124999999999998 0.008876760388790499 0.025900000000000003 ) //272
( -0.008876760388790495 0.005125000000000004 0.025900000000000003 ) //273
( -0.01025 1.2552629691260371e-18 0.025900000000000003 ) //274
( -0.008876760388790499 -0.005124999999999998 0.025900000000000003 ) //275
( -0.0051250000000000046 -0.008876760388790494 0.025900000000000003 ) //276
( -1.8828944536890556e-18 -0.01025 0.025900000000000003 ) //277
( 0.005124999999999992 -0.0088767603887905 0.025900000000000003 ) //278
( 0.008876760388790494 -0.0051250000000000046 0.025900000000000003 ) //279

//circle 1
( 0.0125 0.0 0.025900000000000003 ) //280
( 0.010825317547305485 0.0062499999999999995 0.025900000000000003 ) //281
( 0.006250000000000002 0.010825317547305483 0.025900000000000003 ) //282
( 7.654042494670958e-19 0.0125 0.025900000000000003 ) //283
( -0.006249999999999998 0.010825317547305487 0.025900000000000003 ) //284
( -0.010825317547305481 0.006250000000000005 0.025900000000000003 ) //285
( -0.0125 1.5308084989341916e-18 0.025900000000000003 ) //286
( -0.010825317547305487 -0.006249999999999998 0.025900000000000003 ) //287
( -0.0062500000000000056 -0.01082531754730548 0.025900000000000003 ) //288
( -2.296212748401287e-18 -0.0125 0.025900000000000003 ) //289
( 0.006249999999999992 -0.010825317547305488 0.025900000000000003 ) //290
( 0.01082531754730548 -0.0062500000000000056 0.025900000000000003 ) //291

//circle 2
( 0.02 0.0 0.025900000000000003 ) //292
( 0.017320508075688773 0.009999999999999998 0.025900000000000003 ) //293
( 0.010000000000000002 0.017320508075688773 0.025900000000000003 ) //294
( 1.2246467991473532e-18 0.02 0.025900000000000003 ) //295
( -0.009999999999999995 0.017320508075688777 0.025900000000000003 ) //296
( -0.01732050807568877 0.010000000000000007 0.025900000000000003 ) //297
( -0.02 2.4492935982947064e-18 0.025900000000000003 ) //298
( -0.017320508075688777 -0.009999999999999995 0.025900000000000003 ) //299
( -0.010000000000000009 -0.01732050807568877 0.025900000000000003 ) //300
( -3.673940397442059e-18 -0.02 0.025900000000000003 ) //301
( 0.009999999999999986 -0.01732050807568878 0.025900000000000003 ) //302
( 0.01732050807568877 -0.010000000000000009 0.025900000000000003 ) //303

//circle 3
( 0.027 0.0 0.025900000000000003 ) //304
( 0.023382685902179845 0.013499999999999998 0.025900000000000003 ) //305
( 0.013500000000000003 0.02338268590217984 0.025900000000000003 ) //306
( 1.6532731788489268e-18 0.027 0.025900000000000003 ) //307
( -0.013499999999999995 0.02338268590217985 0.025900000000000003 ) //308
( -0.023382685902179838 0.013500000000000009 0.025900000000000003 ) //309
( -0.027 3.3065463576978537e-18 0.025900000000000003 ) //310
( -0.02338268590217985 -0.013499999999999995 0.025900000000000003 ) //311
( -0.013500000000000012 -0.023382685902179835 0.025900000000000003 ) //312
( -4.95981953654678e-18 -0.027 0.025900000000000003 ) //313
( 0.01349999999999998 -0.023382685902179855 0.025900000000000003 ) //314
( 0.023382685902179835 -0.013500000000000012 0.025900000000000003 ) //315

//circle 4
( 0.034 0.0 0.025900000000000003 ) //316
( 0.029444863728670917 0.016999999999999998 0.025900000000000003 ) //317
( 0.017000000000000005 0.029444863728670913 0.025900000000000003 ) //318
( 2.0818995585505005e-18 0.034 0.025900000000000003 ) //319
( -0.016999999999999994 0.02944486372867092 0.025900000000000003 ) //320
( -0.02944486372867091 0.01700000000000001 0.025900000000000003 ) //321
( -0.034 4.163799117101001e-18 0.025900000000000003 ) //322
( -0.02944486372867092 -0.016999999999999994 0.025900000000000003 ) //323
( -0.017000000000000015 -0.029444863728670907 0.025900000000000003 ) //324
( -6.2456986756515014e-18 -0.034 0.025900000000000003 ) //325
( 0.016999999999999977 -0.02944486372867093 0.025900000000000003 ) //326
( 0.029444863728670907 -0.017000000000000015 0.025900000000000003 ) //327

//circle 5
( 0.0425 0.0 0.025900000000000003 ) //328
( 0.036806079660838646 0.021249999999999998 0.025900000000000003 ) //329
( 0.021250000000000005 0.036806079660838646 0.025900000000000003 ) //330
( 2.6023744481881256e-18 0.0425 0.025900000000000003 ) //331
( -0.02124999999999999 0.03680607966083865 0.025900000000000003 ) //332
( -0.03680607966083864 0.021250000000000015 0.025900000000000003 ) //333
( -0.0425 5.204748896376251e-18 0.025900000000000003 ) //334
( -0.03680607966083865 -0.02124999999999999 0.025900000000000003 ) //335
( -0.02125000000000002 -0.03680607966083863 0.025900000000000003 ) //336
( -7.807123344564376e-18 -0.0425 0.025900000000000003 ) //337
( 0.02124999999999997 -0.03680607966083866 0.025900000000000003 ) //338
( 0.03680607966083863 -0.02125000000000002 0.025900000000000003 ) //339

//section 4

//center
(0.0 0.0 0.029500000000000002) // 340

//polygon
( 0.004 0.0 0.029500000000000002 ) // 341
( 0.0034641016151377548 0.0019999999999999996 0.029500000000000002 ) // 342
( 0.0020000000000000005 0.0034641016151377543 0.029500000000000002 ) // 343
( 2.4492935982947063e-19 0.004 0.029500000000000002 ) // 344
( -0.001999999999999999 0.003464101615137755 0.029500000000000002 ) // 345
( -0.003464101615137754 0.0020000000000000013 0.029500000000000002 ) // 346
( -0.004 4.898587196589413e-19 0.029500000000000002 ) // 347
( -0.003464101615137755 -0.001999999999999999 0.029500000000000002 ) // 348
( -0.0020000000000000018 -0.0034641016151377535 0.029500000000000002 ) // 349
( -7.347880794884119e-19 -0.004 0.029500000000000002 ) // 350
( 0.001999999999999997 -0.003464101615137756 0.029500000000000002 ) // 351
( 0.0034641016151377535 -0.0020000000000000018 0.029500000000000002 ) // 352

//circles

//circle 0
( 0.01025 0.0 0.029500000000000002 ) //353
( 0.008876760388790497 0.005124999999999999 0.029500000000000002 ) //354
( 0.005125000000000001 0.008876760388790495 0.029500000000000002 ) //355
( 6.276314845630186e-19 0.01025 0.029500000000000002 ) //356
( -0.005124999999999998 0.008876760388790499 0.029500000000000002 ) //357
( -0.008876760388790495 0.005125000000000004 0.029500000000000002 ) //358
( -0.01025 1.2552629691260371e-18 0.029500000000000002 ) //359
( -0.008876760388790499 -0.005124999999999998 0.029500000000000002 ) //360
( -0.0051250000000000046 -0.008876760388790494 0.029500000000000002 ) //361
( -1.8828944536890556e-18 -0.01025 0.029500000000000002 ) //362
( 0.005124999999999992 -0.0088767603887905 0.029500000000000002 ) //363
( 0.008876760388790494 -0.0051250000000000046 0.029500000000000002 ) //364

//circle 1
( 0.0125 0.0 0.029500000000000002 ) //365
( 0.010825317547305485 0.0062499999999999995 0.029500000000000002 ) //366
( 0.006250000000000002 0.010825317547305483 0.029500000000000002 ) //367
( 7.654042494670958e-19 0.0125 0.029500000000000002 ) //368
( -0.006249999999999998 0.010825317547305487 0.029500000000000002 ) //369
( -0.010825317547305481 0.006250000000000005 0.029500000000000002 ) //370
( -0.0125 1.5308084989341916e-18 0.029500000000000002 ) //371
( -0.010825317547305487 -0.006249999999999998 0.029500000000000002 ) //372
( -0.0062500000000000056 -0.01082531754730548 0.029500000000000002 ) //373
( -2.296212748401287e-18 -0.0125 0.029500000000000002 ) //374
( 0.006249999999999992 -0.010825317547305488 0.029500000000000002 ) //375
( 0.01082531754730548 -0.0062500000000000056 0.029500000000000002 ) //376

//circle 2
( 0.02 0.0 0.029500000000000002 ) //377
( 0.017320508075688773 0.009999999999999998 0.029500000000000002 ) //378
( 0.010000000000000002 0.017320508075688773 0.029500000000000002 ) //379
( 1.2246467991473532e-18 0.02 0.029500000000000002 ) //380
( -0.009999999999999995 0.017320508075688777 0.029500000000000002 ) //381
( -0.01732050807568877 0.010000000000000007 0.029500000000000002 ) //382
( -0.02 2.4492935982947064e-18 0.029500000000000002 ) //383
( -0.017320508075688777 -0.009999999999999995 0.029500000000000002 ) //384
( -0.010000000000000009 -0.01732050807568877 0.029500000000000002 ) //385
( -3.673940397442059e-18 -0.02 0.029500000000000002 ) //386
( 0.009999999999999986 -0.01732050807568878 0.029500000000000002 ) //387
( 0.01732050807568877 -0.010000000000000009 0.029500000000000002 ) //388

//circle 3
( 0.027 0.0 0.029500000000000002 ) //389
( 0.023382685902179845 0.013499999999999998 0.029500000000000002 ) //390
( 0.013500000000000003 0.02338268590217984 0.029500000000000002 ) //391
( 1.6532731788489268e-18 0.027 0.029500000000000002 ) //392
( -0.013499999999999995 0.02338268590217985 0.029500000000000002 ) //393
( -0.023382685902179838 0.013500000000000009 0.029500000000000002 ) //394
( -0.027 3.3065463576978537e-18 0.029500000000000002 ) //395
( -0.02338268590217985 -0.013499999999999995 0.029500000000000002 ) //396
( -0.013500000000000012 -0.023382685902179835 0.029500000000000002 ) //397
( -4.95981953654678e-18 -0.027 0.029500000000000002 ) //398
( 0.01349999999999998 -0.023382685902179855 0.029500000000000002 ) //399
( 0.023382685902179835 -0.013500000000000012 0.029500000000000002 ) //400

//circle 4
( 0.034 0.0 0.029500000000000002 ) //401
( 0.029444863728670917 0.016999999999999998 0.029500000000000002 ) //402
( 0.017000000000000005 0.029444863728670913 0.029500000000000002 ) //403
( 2.0818995585505005e-18 0.034 0.029500000000000002 ) //404
( -0.016999999999999994 0.02944486372867092 0.029500000000000002 ) //405
( -0.02944486372867091 0.01700000000000001 0.029500000000000002 ) //406
( -0.034 4.163799117101001e-18 0.029500000000000002 ) //407
( -0.02944486372867092 -0.016999999999999994 0.029500000000000002 ) //408
( -0.017000000000000015 -0.029444863728670907 0.029500000000000002 ) //409
( -6.2456986756515014e-18 -0.034 0.029500000000000002 ) //410
( 0.016999999999999977 -0.02944486372867093 0.029500000000000002 ) //411
( 0.029444863728670907 -0.017000000000000015 0.029500000000000002 ) //412

//circle 5
( 0.0425 0.0 0.029500000000000002 ) //413
( 0.036806079660838646 0.021249999999999998 0.029500000000000002 ) //414
( 0.021250000000000005 0.036806079660838646 0.029500000000000002 ) //415
( 2.6023744481881256e-18 0.0425 0.029500000000000002 ) //416
( -0.02124999999999999 0.03680607966083865 0.029500000000000002 ) //417
( -0.03680607966083864 0.021250000000000015 0.029500000000000002 ) //418
( -0.0425 5.204748896376251e-18 0.029500000000000002 ) //419
( -0.03680607966083865 -0.02124999999999999 0.029500000000000002 ) //420
( -0.02125000000000002 -0.03680607966083863 0.029500000000000002 ) //421
( -7.807123344564376e-18 -0.0425 0.029500000000000002 ) //422
( 0.02124999999999997 -0.03680607966083866 0.029500000000000002 ) //423
( 0.03680607966083863 -0.02125000000000002 0.029500000000000002 ) //424

//section 5

//center
(0.0 0.0 0.0415) // 425

//polygon
( 0.004 0.0 0.0415 ) // 426
( 0.0034641016151377548 0.0019999999999999996 0.0415 ) // 427
( 0.0020000000000000005 0.0034641016151377543 0.0415 ) // 428
( 2.4492935982947063e-19 0.004 0.0415 ) // 429
( -0.001999999999999999 0.003464101615137755 0.0415 ) // 430
( -0.003464101615137754 0.0020000000000000013 0.0415 ) // 431
( -0.004 4.898587196589413e-19 0.0415 ) // 432
( -0.003464101615137755 -0.001999999999999999 0.0415 ) // 433
( -0.0020000000000000018 -0.0034641016151377535 0.0415 ) // 434
( -7.347880794884119e-19 -0.004 0.0415 ) // 435
( 0.001999999999999997 -0.003464101615137756 0.0415 ) // 436
( 0.0034641016151377535 -0.0020000000000000018 0.0415 ) // 437

//circles

//circle 0
( 0.01025 0.0 0.0415 ) //438
( 0.008876760388790497 0.005124999999999999 0.0415 ) //439
( 0.005125000000000001 0.008876760388790495 0.0415 ) //440
( 6.276314845630186e-19 0.01025 0.0415 ) //441
( -0.005124999999999998 0.008876760388790499 0.0415 ) //442
( -0.008876760388790495 0.005125000000000004 0.0415 ) //443
( -0.01025 1.2552629691260371e-18 0.0415 ) //444
( -0.008876760388790499 -0.005124999999999998 0.0415 ) //445
( -0.0051250000000000046 -0.008876760388790494 0.0415 ) //446
( -1.8828944536890556e-18 -0.01025 0.0415 ) //447
( 0.005124999999999992 -0.0088767603887905 0.0415 ) //448
( 0.008876760388790494 -0.0051250000000000046 0.0415 ) //449

//circle 1
( 0.0125 0.0 0.0415 ) //450
( 0.010825317547305485 0.0062499999999999995 0.0415 ) //451
( 0.006250000000000002 0.010825317547305483 0.0415 ) //452
( 7.654042494670958e-19 0.0125 0.0415 ) //453
( -0.006249999999999998 0.010825317547305487 0.0415 ) //454
( -0.010825317547305481 0.006250000000000005 0.0415 ) //455
( -0.0125 1.5308084989341916e-18 0.0415 ) //456
( -0.010825317547305487 -0.006249999999999998 0.0415 ) //457
( -0.0062500000000000056 -0.01082531754730548 0.0415 ) //458
( -2.296212748401287e-18 -0.0125 0.0415 ) //459
( 0.006249999999999992 -0.010825317547305488 0.0415 ) //460
( 0.01082531754730548 -0.0062500000000000056 0.0415 ) //461

//circle 2
( 0.02 0.0 0.0415 ) //462
( 0.017320508075688773 0.009999999999999998 0.0415 ) //463
( 0.010000000000000002 0.017320508075688773 0.0415 ) //464
( 1.2246467991473532e-18 0.02 0.0415 ) //465
( -0.009999999999999995 0.017320508075688777 0.0415 ) //466
( -0.01732050807568877 0.010000000000000007 0.0415 ) //467
( -0.02 2.4492935982947064e-18 0.0415 ) //468
( -0.017320508075688777 -0.009999999999999995 0.0415 ) //469
( -0.010000000000000009 -0.01732050807568877 0.0415 ) //470
( -3.673940397442059e-18 -0.02 0.0415 ) //471
( 0.009999999999999986 -0.01732050807568878 0.0415 ) //472
( 0.01732050807568877 -0.010000000000000009 0.0415 ) //473

//circle 3
( 0.027 0.0 0.0415 ) //474
( 0.023382685902179845 0.013499999999999998 0.0415 ) //475
( 0.013500000000000003 0.02338268590217984 0.0415 ) //476
( 1.6532731788489268e-18 0.027 0.0415 ) //477
( -0.013499999999999995 0.02338268590217985 0.0415 ) //478
( -0.023382685902179838 0.013500000000000009 0.0415 ) //479
( -0.027 3.3065463576978537e-18 0.0415 ) //480
( -0.02338268590217985 -0.013499999999999995 0.0415 ) //481
( -0.013500000000000012 -0.023382685902179835 0.0415 ) //482
( -4.95981953654678e-18 -0.027 0.0415 ) //483
( 0.01349999999999998 -0.023382685902179855 0.0415 ) //484
( 0.023382685902179835 -0.013500000000000012 0.0415 ) //485

//circle 4
( 0.034 0.0 0.0415 ) //486
( 0.029444863728670917 0.016999999999999998 0.0415 ) //487
( 0.017000000000000005 0.029444863728670913 0.0415 ) //488
( 2.0818995585505005e-18 0.034 0.0415 ) //489
( -0.016999999999999994 0.02944486372867092 0.0415 ) //490